<routes xmlns:xsi="http://www.w3.org/2001/XMLSchema-instance" xsi:noNamespaceSchemaLocation="http://sumo.dlr.de/xsd/routes_file.xsd">
<vehicle id="1" type="car" depart="0.0" departPos="33.202101229640185" departLane="free" arrivalPos="0.0"><route edges="286070634#0 286070634#4" /></vehicle><route id="1" edges="286070634#0 286070634#4" /><vehicle id="319" type="taxi" depart="0.0" departPos="5.540926316763477" departLane="free" arrivalPos="0.0"><route edges="207971472#0 243850913#0 31985292#0" /></vehicle><route id="319" edges="207971472#0 243850913#0 31985292#0" /><vehicle id="318" type="taxi" depart="0.0" departPos="79.23" departLane="free" arrivalPos="65.42828306627041"><route edges="295083398#0 168725546#0 243850913#0" /></vehicle><route id="318" edges="295083398#0 168725546#0 243850913#0" /><vehicle id="317" type="taxi" depart="0.0" departPos="45.586070196673106" departLane="free" arrivalPos="65.42828306627041"><route edges="168725561#4 207971472#0 243850913#0" /></vehicle><route id="317" edges="168725561#4 207971472#0 243850913#0" /><vehicle id="316" type="motorcycle" depart="0.0" departPos="13.164252465077858" departLane="free" arrivalPos="0.0"><route edges="390115233#0 778622871 758432181 259806440#0 249412140#0 260124785#0 260124785#3 311408820#0 311408820#5 311408820#8 168737311#0 168737311#4 189063911#0 24218743 168725549#0 741087752 286070634#0 286070634#4" /></vehicle><route id="316" edges="390115233#0 778622871 758432181 259806440#0 249412140#0 260124785#0 260124785#3 311408820#0 311408820#5 311408820#8 168737311#0 168737311#4 189063911#0 24218743 168725549#0 741087752 286070634#0 286070634#4" /><vehicle id="315" type="taxi" depart="0.0" departPos="68.18083395421228" departLane="free" arrivalPos="0.0"><route edges="207971472#0 249412140#0 260124785#0 260124785#3 311408820#0 311408820#5 311408820#8 168737311#0 168737311#4 189063911#0 24218743 168725549#0 741087752 741087756#0" /></vehicle><route id="315" edges="207971472#0 249412140#0 260124785#0 260124785#3 311408820#0 311408820#5 311408820#8 168737311#0 168737311#4 189063911#0 24218743 168725549#0 741087752 741087756#0" /><vehicle id="314" type="car" depart="0.0" departPos="11.159712854012193" departLane="free" arrivalPos="0.0"><route edges="259806440#0 249412140#0 260124785#0 260124785#3 311408820#0 311408820#5 311408820#8 168737311#0 168737311#4 189063911#0 24218743 168725549#0 741087752 741087756#0" /></vehicle><route id="314" edges="259806440#0 249412140#0 260124785#0 260124785#3 311408820#0 311408820#5 311408820#8 168737311#0 168737311#4 189063911#0 24218743 168725549#0 741087752 741087756#0" /><vehicle id="313" type="MediumVehicle" depart="0.0" departPos="20.466799074835357" departLane="free" arrivalPos="21.644135237216677"><route edges="207971472#0 249412140#0 260124785#0 260124785#3 311408820#0 311408820#5 311408820#8 168737311#0 168737311#4 32295709" /></vehicle><route id="313" edges="207971472#0 249412140#0 260124785#0 260124785#3 311408820#0 311408820#5 311408820#8 168737311#0 168737311#4 32295709" /><vehicle id="312" type="car" depart="0.0" departPos="5.455991416143485" departLane="free" arrivalPos="45.64936954560091"><route edges="390115233#0 778622871 758432181 259806440#0 249412140#0 260124785#0 260124785#3 311408820#0 311408820#5 311408820#8 168737311#0 168737311#4 189063911#0 24218743 977757273" /></vehicle><route id="312" edges="390115233#0 778622871 758432181 259806440#0 249412140#0 260124785#0 260124785#3 311408820#0 311408820#5 311408820#8 168737311#0 168737311#4 189063911#0 24218743 977757273" /><vehicle id="311" type="taxi" depart="0.0" departPos="79.23" departLane="free" arrivalPos="67.66971404161677"><route edges="295083398#0 260124785#0 260124785#3 311408820#0 311408820#5 311408820#8 168737311#0 168737311#4 189063911#0 24218743 977757273 762514801#0 762514801#3 741733384#0 260824573#0 260824573#3 189099793#0 168725548#0 295083398#0 168725546#0 243850915#0 243850915#1 41806625#0 400829834#0 163711426#0 163711426#2 878082499#0 249697226#0 249697226#1 295083400#0" /></vehicle><route id="311" edges="295083398#0 260124785#0 260124785#3 311408820#0 311408820#5 311408820#8 168737311#0 168737311#4 189063911#0 24218743 977757273 762514801#0 762514801#3 741733384#0 260824573#0 260824573#3 189099793#0 168725548#0 295083398#0 168725546#0 243850915#0 243850915#1 41806625#0 400829834#0 163711426#0 163711426#2 878082499#0 249697226#0 249697226#1 295083400#0" /><vehicle id="310" type="taxi" depart="0.0" departPos="10.732929787627512" departLane="free" arrivalPos="4.017365430229165"><route edges="758432181 259806440#0 249412140#0 260124785#0 260124785#3 311408820#0 311408820#5 311408820#8 168737311#0 168737311#4 189063911#0 24218743 977757273 762514801#0 762514801#3 741733384#0 260824573#0 260824573#3 189099793#0 168725561#0 168725561#3 168725561#4 207971478#0 207971478#1 222941079#0 222941079#3 222941079#4" /></vehicle><route id="310" edges="758432181 259806440#0 249412140#0 260124785#0 260124785#3 311408820#0 311408820#5 311408820#8 168737311#0 168737311#4 189063911#0 24218743 977757273 762514801#0 762514801#3 741733384#0 260824573#0 260824573#3 189099793#0 168725561#0 168725561#3 168725561#4 207971478#0 207971478#1 222941079#0 222941079#3 222941079#4" /><vehicle id="309" type="taxi" depart="0.0" departPos="71.85733010148631" departLane="free" arrivalPos="52.48506892194"><route edges="207971478#0 207971478#1 10971763#4" /></vehicle><route id="309" edges="207971478#0 207971478#1 10971763#4" /><vehicle id="320" type="taxi" depart="0.0" departPos="0.0" departLane="free" arrivalPos="3.394813322363341"><route edges="295083399#3" /></vehicle><route id="320" edges="295083399#3" /><vehicle id="308" type="taxi" depart="0.0" departPos="7.680158419218851" departLane="free" arrivalPos="4.017365430229165"><route edges="207971478#1 222941079#0 222941079#3 222941079#4" /></vehicle><route id="308" edges="207971478#1 222941079#0 222941079#3 222941079#4" /><vehicle id="306" type="taxi" depart="0.0" departPos="19.50339380002766" departLane="free" arrivalPos="2.5092610525439802"><route edges="207971478#1 222941079#0 222941079#3 222941079#4" /></vehicle><route id="306" edges="207971478#1 222941079#0 222941079#3 222941079#4" /><vehicle id="305" type="taxi" depart="0.0" departPos="98.00728557102276" departLane="free" arrivalPos="43.03413301398444"><route edges="207971472#0 243850915#0 243850915#1 163711428#0 878082497 163711429#0 390115243#0" /></vehicle><route id="305" edges="207971472#0 243850915#0 243850915#1 163711428#0 878082497 163711429#0 390115243#0" /><vehicle id="304" type="taxi" depart="0.0" departPos="50.86882242795013" departLane="free" arrivalPos="54.55437112695594"><route edges="10971763#4" /></vehicle><route id="304" edges="10971763#4" /><vehicle id="303" type="taxi" depart="0.0" departPos="77.67026132124249" departLane="free" arrivalPos="54.370315123422145"><route edges="10971763#0 10971763#4" /></vehicle><route id="303" edges="10971763#0 10971763#4" /><vehicle id="302" type="taxi" depart="0.0" departPos="69.6791894775767" departLane="free" arrivalPos="4.017365430229165"><route edges="10971763#0 222941079#0 222941079#3 222941079#4" /></vehicle><route id="302" edges="10971763#0 222941079#0 222941079#3 222941079#4" /><vehicle id="301" type="taxi" depart="0.0" departPos="97.81289389548422" departLane="free" arrivalPos="65.42828306627041"><route edges="207971472#0 243850913#0" /></vehicle><route id="301" edges="207971472#0 243850913#0" /><vehicle id="300" type="taxi" depart="0.0" departPos="0.0" departLane="free" arrivalPos="0.0"><route edges="243850913#0 31985292#0" /></vehicle><route id="300" edges="243850913#0 31985292#0" /><vehicle id="299" type="taxi" depart="0.0" departPos="23.41" departLane="free" arrivalPos="42.70624212331162"><route edges="163711428#0 878082497 163711429#0 390115243#0" /></vehicle><route id="299" edges="163711428#0 878082497 163711429#0 390115243#0" /><vehicle id="298" type="taxi" depart="0.0" departPos="37.77213517504255" departLane="free" arrivalPos="43.07342429165083"><route edges="390115243#0" /></vehicle><route id="298" edges="390115243#0" /><vehicle id="297" type="car" depart="0.0" departPos="100.1391508102607" departLane="free" arrivalPos="49.386700820816706"><route edges="207971478#0 207971478#1 10971763#4" /></vehicle><route id="297" edges="207971478#0 207971478#1 10971763#4" /><vehicle id="296" type="car" depart="0.0" departPos="79.23" departLane="free" arrivalPos="65.42828306627041"><route edges="295083398#0 168725546#0 243850913#0" /></vehicle><route id="296" edges="295083398#0 168725546#0 243850913#0" /><vehicle id="307" type="taxi" depart="0.0" departPos="23.212604181315985" departLane="free" arrivalPos="4.017365430229165"><route edges="207971478#1 222941079#0 222941079#3 222941079#4" /></vehicle><route id="307" edges="207971478#1 222941079#0 222941079#3 222941079#4" /><vehicle id="322" type="taxi" depart="0.0" departPos="48.47030612946053" departLane="free" arrivalPos="4.017365430229165"><route edges="168725561#4 207971478#0 207971478#1 222941079#0 222941079#3 222941079#4" /></vehicle><route id="322" edges="168725561#4 207971478#0 207971478#1 222941079#0 222941079#3 222941079#4" /><vehicle id="323" type="car" depart="0.0" departPos="28.46071699072958" departLane="free" arrivalPos="106.2281510427558"><route edges="260124785#0 260124785#3 311408820#0 311408820#5 311408820#8 23182806#0 52493441#0 52493436#0 52493436#5 52493436#8 52493436#13 260124786#0 260124786#2 168914459#0 751068056" /></vehicle><route id="323" edges="260124785#0 260124785#3 311408820#0 311408820#5 311408820#8 23182806#0 52493441#0 52493436#0 52493436#5 52493436#8 52493436#13 260124786#0 260124786#2 168914459#0 751068056" /><vehicle id="324" type="car" depart="0.0" departPos="98.00728557102276" departLane="free" arrivalPos="47.13709372002351"><route edges="207971472#0 249412140#0 260124785#0 260124785#3 311408820#0 311408820#5 311408820#8 23182806#0 52493441#0 52493436#0 52493436#5 52493436#8 52493436#13 260124786#0 634252646#0 259803255#2 601290889#0 601290889#4 601290889#6 601290889#8" /></vehicle><route id="324" edges="207971472#0 249412140#0 260124785#0 260124785#3 311408820#0 311408820#5 311408820#8 23182806#0 52493441#0 52493436#0 52493436#5 52493436#8 52493436#13 260124786#0 634252646#0 259803255#2 601290889#0 601290889#4 601290889#6 601290889#8" /><vehicle id="349" type="car" depart="0.0" departPos="57.37835348225066" departLane="free" arrivalPos="9.177652908341118"><route edges="284503674#0 82682799 85392263#1 10741758#1 10741722#0" /></vehicle><route id="349" edges="284503674#0 82682799 85392263#1 10741758#1 10741722#0" /><vehicle id="348" type="car" depart="0.0" departPos="36.800624834618525" departLane="free" arrivalPos="7.397515166367152"><route edges="284503674#0 972965170#0 972965169 10976960#2" /></vehicle><route id="348" edges="284503674#0 972965170#0 972965169 10976960#2" /><vehicle id="347" type="motorcycle" depart="0.0" departPos="11.11" departLane="free" arrivalPos="7.11065916669201"><route edges="384593007 284503674#0 972965170#0 972965169 10976960#2" /></vehicle><route id="347" edges="384593007 284503674#0 972965170#0 972965169 10976960#2" /><vehicle id="346" type="car" depart="0.0" departPos="18.710148633569613" departLane="free" arrivalPos="69.048840246126"><route edges="10741754#2 10741754#3 222899032#0 222899032#1 261671454#0 887747034 887747035#0 384593010#2 384593010#2.57 168725548#0 295083398#0 168725546#0 243850915#0 243850915#1 41806625#0 400829834#0 163711426#0 163711426#2 878082499#0 249697226#0 249697226#1 295083400#0" /></vehicle><route id="346" edges="10741754#2 10741754#3 222899032#0 222899032#1 261671454#0 887747034 887747035#0 384593010#2 384593010#2.57 168725548#0 295083398#0 168725546#0 243850915#0 243850915#1 41806625#0 400829834#0 163711426#0 163711426#2 878082499#0 249697226#0 249697226#1 295083400#0" /><vehicle id="345" type="motorcycle" depart="0.0" departPos="0.0" departLane="free" arrivalPos="16.53268556419555"><route edges="222899032#1 284503674#0 972965170#0 972965169" /></vehicle><route id="345" edges="222899032#1 284503674#0 972965170#0 972965169" /><vehicle id="344" type="car" depart="0.0" departPos="7.099911283744774" departLane="free" arrivalPos="0.0"><route edges="10741754#3 222899032#0 222899032#1 261671454#0 887747034 887747035#0 384593010#2 384593010#2.57 168725548#0 295083398#0 168725546#0 243850913#0 31985292#0" /></vehicle><route id="344" edges="10741754#3 222899032#0 222899032#1 261671454#0 887747034 887747035#0 384593010#2 384593010#2.57 168725548#0 295083398#0 168725546#0 243850913#0 31985292#0" /><vehicle id="343" type="car" depart="0.0" departPos="0.0" departLane="free" arrivalPos="4.017365430229165"><route edges="887747035#0 384593010#2 384593010#2.57 168725561#0 168725561#3 168725561#4 207971478#0 207971478#1 222941079#0 222941079#3 222941079#4" /></vehicle><route id="343" edges="887747035#0 384593010#2 384593010#2.57 168725561#0 168725561#3 168725561#4 207971478#0 207971478#1 222941079#0 222941079#3 222941079#4" /><vehicle id="342" type="motorcycle" depart="0.0" departPos="2.91" departLane="free" arrivalPos="31.176551194885036"><route edges="261671454#0 887747034 887747035#0 384593010#2 384593010#2.57 168725561#0 168725561#3 168725561#4 207971472#0" /></vehicle><route id="342" edges="261671454#0 887747034 887747035#0 384593010#2 384593010#2.57 168725561#0 168725561#3 168725561#4 207971472#0" /><vehicle id="341" type="car" depart="0.0" departPos="32.271135214401625" departLane="free" arrivalPos="4.943247920143136"><route edges="261671452#0 261671452#2" /></vehicle><route id="341" edges="261671452#0 261671452#2" /><vehicle id="340" type="car" depart="0.0" departPos="46.52024992546398" departLane="free" arrivalPos="105.73866230451796"><route edges="222899032#0 222899032#1 284503674#0 972965170#0 32245113#0 32295798#0 23182806#0 52493441#0 52493436#0 52493436#5 52493436#8 52493436#13 260124786#0 260124786#2 168914459#0 751068056" /></vehicle><route id="340" edges="222899032#0 222899032#1 284503674#0 972965170#0 32245113#0 32295798#0 23182806#0 52493441#0 52493436#0 52493436#5 52493436#8 52493436#13 260124786#0 260124786#2 168914459#0 751068056" /><vehicle id="339" type="bus" depart="0.0" departPos="61.70323394233846" departLane="free" arrivalPos="54.345021377604496"><route edges="222899032#0 222899032#1 261671454#0 887747034 887747035#0 384593010#2 384593010#2.57 168725548#0 295083398#0" /></vehicle><route id="339" edges="222899032#0 222899032#1 261671454#0 887747034 887747035#0 384593010#2 384593010#2.57 168725548#0 295083398#0" /><vehicle id="338" type="motorcycle" depart="0.0" departPos="0.9834523417830535" departLane="free" arrivalPos="6.699138004250928"><route edges="-10976435#6 -10976435#3" /></vehicle><route id="338" edges="-10976435#6 -10976435#3" /><vehicle id="337" type="MediumVehicle" depart="0.0" departPos="0.0" departLane="free" arrivalPos="8.625020610744492"><route edges="10741754#2 10741754#3 222899032#0 222899032#1 284503674#0 972965170#0 972965169 10976960#2" /></vehicle><route id="337" edges="10741754#2 10741754#3 222899032#0 222899032#1 284503674#0 972965170#0 972965169 10976960#2" /><vehicle id="336" type="taxi" depart="0.0" departPos="66.900394225904" departLane="free" arrivalPos="104.6888302360868"><route edges="222899032#0 222899032#1 284503674#0 972965170#0 32245113#0 32295798#0 23182806#0 52493441#0 52493436#0 52493436#5 52493436#8 52493436#13 260124786#0 260124786#2 168914459#0 751068056" /></vehicle><route id="336" edges="222899032#0 222899032#1 284503674#0 972965170#0 32245113#0 32295798#0 23182806#0 52493441#0 52493436#0 52493436#5 52493436#8 52493436#13 260124786#0 260124786#2 168914459#0 751068056" /><vehicle id="335" type="bus" depart="0.0" departPos="35.39709100679628" departLane="free" arrivalPos="6.699138004250928"><route edges="284503674#0 972965170#0 32245113#0 741733384#0 260824573#0 260824573#3 189099792#0 -384593010#2 -887747035#0 384593009 384593008#0 -82682796 -261671453 -10976435#7 -10976435#6 -10976435#3" /></vehicle><route id="335" edges="284503674#0 972965170#0 32245113#0 741733384#0 260824573#0 260824573#3 189099792#0 -384593010#2 -887747035#0 384593009 384593008#0 -82682796 -261671453 -10976435#7 -10976435#6 -10976435#3" /><vehicle id="334" type="motorcycle" depart="0.0" departPos="107.89066487390741" departLane="free" arrivalPos="42.3782256936175"><route edges="1101347640#0 -168737311#12 -168737311#3 -311408820#10 -311408820#7 -311408820#4 311453391#0 168725546#0 243850915#0 243850915#1 163711428#0 878082497 163711429#0 390115243#0" /></vehicle><route id="334" edges="1101347640#0 -168737311#12 -168737311#3 -311408820#10 -311408820#7 -311408820#4 311453391#0 168725546#0 243850915#0 243850915#1 163711428#0 878082497 163711429#0 390115243#0" /><vehicle id="333" type="taxi" depart="0.0" departPos="58.52401181308162" departLane="free" arrivalPos="100.33799629406573"><route edges="222899032#0 222899032#1 284503674#0 972965170#0 32245113#0 32295798#0 23182806#0 52493441#0 52493436#0 52493436#5 52493436#8 52493436#13 260124786#0 260124786#2 168914459#0 751068056" /></vehicle><route id="333" edges="222899032#0 222899032#1 284503674#0 972965170#0 32245113#0 32295798#0 23182806#0 52493441#0 52493436#0 52493436#5 52493436#8 52493436#13 260124786#0 260124786#2 168914459#0 751068056" /><vehicle id="332" type="car" depart="0.0" departPos="0.0" departLane="free" arrivalPos="14.425635725218665"><route edges="222899032#1 284503674#0 972965170#0 32245113#0 32295798#0 23182806#0 52493441#0 52493436#0 52493436#5 52493436#8 23183940#0" /></vehicle><route id="332" edges="222899032#1 284503674#0 972965170#0 32245113#0 32295798#0 23182806#0 52493441#0 52493436#0 52493436#5 52493436#8 23183940#0" /><vehicle id="331" type="car" depart="0.0" departPos="0.0" departLane="free" arrivalPos="105.29742702115696"><route edges="222899032#1 284503674#0 972965170#0 32245113#0 32295798#0 23182806#0 52493441#0 52493436#0 52493436#5 52493436#8 52493436#13 260124786#0 260124786#2 168914459#0 751068056" /></vehicle><route id="331" edges="222899032#1 284503674#0 972965170#0 32245113#0 32295798#0 23182806#0 52493441#0 52493436#0 52493436#5 52493436#8 52493436#13 260124786#0 260124786#2 168914459#0 751068056" /><vehicle id="330" type="car" depart="0.0" departPos="21.97851342055124" departLane="free" arrivalPos="105.30625400139482"><route edges="284503674#0 972965170#0 32245113#0 32295798#0 23182806#0 52493441#0 52493436#0 52493436#5 52493436#8 52493436#13 260124786#0 260124786#2 168914459#0 751068056" /></vehicle><route id="330" edges="284503674#0 972965170#0 32245113#0 32295798#0 23182806#0 52493441#0 52493436#0 52493436#5 52493436#8 52493436#13 260124786#0 260124786#2 168914459#0 751068056" /><vehicle id="329" type="car" depart="0.0" departPos="6.791278546058079" departLane="free" arrivalPos="106.98379953710375"><route edges="972965170#0 32245113#0 32295798#0 23182806#0 52493441#0 52493436#0 52493436#5 52493436#8 52493436#13 260124786#0 260124786#2 168914459#0 751068056" /></vehicle><route id="329" edges="972965170#0 32245113#0 32295798#0 23182806#0 52493441#0 52493436#0 52493436#5 52493436#8 52493436#13 260124786#0 260124786#2 168914459#0 751068056" /><vehicle id="328" type="car" depart="0.0" departPos="23.453607313794762" departLane="free" arrivalPos="104.41035497026162"><route edges="661184019#1 390115233#0 778622871 758432181 259806440#0 249412140#0 260124785#0 260124785#3 311408820#0 311408820#5 311408820#8 23182806#0 52493441#0 52493436#0 52493436#5 52493436#8 52493436#13 260124786#0 260124786#2 168914459#0 751068056" /></vehicle><route id="328" edges="661184019#1 390115233#0 778622871 758432181 259806440#0 249412140#0 260124785#0 260124785#3 311408820#0 311408820#5 311408820#8 23182806#0 52493441#0 52493436#0 52493436#5 52493436#8 52493436#13 260124786#0 260124786#2 168914459#0 751068056" /><vehicle id="327" type="car" depart="0.0" departPos="9.852179551507312" departLane="free" arrivalPos="104.72792336820892"><route edges="390115233#0 778622871 758432181 259806440#0 249412140#0 260124785#0 260124785#3 311408820#0 311408820#5 311408820#8 23182806#0 52493441#0 52493436#0 52493436#5 52493436#8 52493436#13 260124786#0 260124786#2 168914459#0 751068056" /></vehicle><route id="327" edges="390115233#0 778622871 758432181 259806440#0 249412140#0 260124785#0 260124785#3 311408820#0 311408820#5 311408820#8 23182806#0 52493441#0 52493436#0 52493436#5 52493436#8 52493436#13 260124786#0 260124786#2 168914459#0 751068056" /><vehicle id="326" type="taxi" depart="0.0" departPos="8.639349318447593" departLane="free" arrivalPos="104.03178879802263"><route edges="259806440#0 249412140#0 260124785#0 260124785#3 311408820#0 311408820#5 311408820#8 23182806#0 52493441#0 52493436#0 52493436#5 52493436#8 52493436#13 260124786#0 260124786#2 168914459#0 751068056" /></vehicle><route id="326" edges="259806440#0 249412140#0 260124785#0 260124785#3 311408820#0 311408820#5 311408820#8 23182806#0 52493441#0 52493436#0 52493436#5 52493436#8 52493436#13 260124786#0 260124786#2 168914459#0 751068056" /><vehicle id="325" type="car" depart="0.0" departPos="9.56318598338465" departLane="free" arrivalPos="0.0"><route edges="207971472#0 249412140#0 260124785#0 260124785#3 311408820#0 311408820#5 311408820#8 23182806#0 52493441#0 52493436#0 52493436#5 636473899#15" /></vehicle><route id="325" edges="207971472#0 249412140#0 260124785#0 260124785#3 311408820#0 311408820#5 311408820#8 23182806#0 52493441#0 52493436#0 52493436#5 636473899#15" /><vehicle id="295" type="car" depart="0.0" departPos="15.32815409457438" departLane="free" arrivalPos="11.58515178715955"><route edges="390115233#0 778622871 758432182 878082498#0" /></vehicle><route id="295" edges="390115233#0 778622871 758432182 878082498#0" /><vehicle id="294" type="motorcycle" depart="0.0" departPos="14.602256101171125" departLane="free" arrivalPos="35.538485096627724"><route edges="390115233#0 778622871 758432181 10971763#0 10971763#4" /></vehicle><route id="294" edges="390115233#0 778622871 758432181 10971763#0 10971763#4" /><vehicle id="291" type="motorcycle" depart="0.0" departPos="0.0" departLane="free" arrivalPos="42.48773197464883"><route edges="163711429#0 390115243#0" /></vehicle><route id="291" edges="163711429#0 390115243#0" /><vehicle id="290" type="motorcycle" depart="0.0" departPos="62.48867041942796" departLane="free" arrivalPos="41.98820841085218"><route edges="295083398#0 168725546#0 243850915#0 243850915#1 163711428#0 878082497 163711429#0 390115243#0" /></vehicle><route id="290" edges="295083398#0 168725546#0 243850915#0 243850915#1 163711428#0 878082497 163711429#0 390115243#0" /><vehicle id="257" type="car" depart="0.0" departPos="22.837772694442638" departLane="free" arrivalPos="7.764990300356923"><route edges="280005152#0 725187180 298298663#0 298298663#0.45 189063912#0 207971475#0 207971475#1 284241336#0 284241336#5 52493742 52493741#0 704293239#0 299506410#0 207979572#0 207979572#0.114 23182767#0" /></vehicle><route id="257" edges="280005152#0 725187180 298298663#0 298298663#0.45 189063912#0 207971475#0 207971475#1 284241336#0 284241336#5 52493742 52493741#0 704293239#0 299506410#0 207979572#0 207979572#0.114 23182767#0" /><vehicle id="256" type="car" depart="0.0" departPos="19.281174731456925" departLane="free" arrivalPos="42.21573592925968"><route edges="163711428#0 878082497 163711429#0 390115243#0" /></vehicle><route id="256" edges="163711428#0 878082497 163711429#0 390115243#0" /><vehicle id="255" type="motorcycle" depart="0.0" departPos="0.0" departLane="free" arrivalPos="1.8746590950167352"><route edges="280005152#0 725187180 298298663#0 298298663#0.45 189063912#0 207971475#0 207971475#1 284241336#0 284241336#5 52493742 52493741#0 704293239#0 299506410#0 207979572#0 207979572#0.114 789796816#0" /></vehicle><route id="255" edges="280005152#0 725187180 298298663#0 298298663#0.45 189063912#0 207971475#0 207971475#1 284241336#0 284241336#5 52493742 52493741#0 704293239#0 299506410#0 207979572#0 207979572#0.114 789796816#0" /><vehicle id="254" type="motorcycle" depart="0.0" departPos="0.0" departLane="free" arrivalPos="0.12132168611233934"><route edges="298298663#0 298298663#0.45 189063912#0 207971475#0 636473899#0" /></vehicle><route id="254" edges="298298663#0 298298663#0.45 189063912#0 207971475#0 636473899#0" /><vehicle id="253" type="motorcycle" depart="0.0" departPos="31.18085051123401" departLane="free" arrivalPos="43.66748206539802"><route edges="298298663#0.45 189063912#0 207971475#0 207971475#1 284241336#0 284241336#5 52493742 52493741#0 704293239#0" /></vehicle><route id="253" edges="298298663#0.45 189063912#0 207971475#0 207971475#1 284241336#0 284241336#5 52493742 52493741#0 704293239#0" /><vehicle id="252" type="motorcycle" depart="0.0" departPos="24.72439733161377" departLane="free" arrivalPos="7.990392034093758"><route edges="298298663#0.45 189063912#0 207971475#0 207971475#1 284241336#0 284241336#5 52493742" /></vehicle><route id="252" edges="298298663#0.45 189063912#0 207971475#0 207971475#1 284241336#0 284241336#5 52493742" /><vehicle id="251" type="motorcycle" depart="0.0" departPos="15.370909823008766" departLane="free" arrivalPos="44.2909821727716"><route edges="298298663#0.45 189063912#0 207971475#0 207971475#1 284241336#0 284241336#5" /></vehicle><route id="251" edges="298298663#0.45 189063912#0 207971475#0 207971475#1 284241336#0 284241336#5" /><vehicle id="250" type="motorcycle" depart="0.0" departPos="6.48067561132358" departLane="free" arrivalPos="1.0403807963174654"><route edges="298298663#0.45 189063912#0 207971475#0 207971475#1 284241336#0 284241336#5 52493742 52493741#0 704293239#0 299506410#0 207979572#0 207979572#0.114 789796816#0" /></vehicle><route id="250" edges="298298663#0.45 189063912#0 207971475#0 207971475#1 284241336#0 284241336#5 52493742 52493741#0 704293239#0 299506410#0 207979572#0 207979572#0.114 789796816#0" /><vehicle id="249" type="motorcycle" depart="0.0" departPos="2.941363953587479" departLane="free" arrivalPos="43.70166259899807"><route edges="298298663#0.45 189063912#0 207971475#0 207971475#1 284241336#0 284241336#5" /></vehicle><route id="249" edges="298298663#0.45 189063912#0 207971475#0 207971475#1 284241336#0 284241336#5" /><vehicle id="248" type="motorcycle" depart="0.0" departPos="44.743995082428704" departLane="free" arrivalPos="0.6595421376016734"><route edges="298298663#0 298298663#0.45 189063912#0 207971475#0 207971475#1 51249283" /></vehicle><route id="248" edges="298298663#0 298298663#0.45 189063912#0 207971475#0 207971475#1 51249283" /><vehicle id="247" type="motorcycle" depart="0.0" departPos="45.21145761325004" departLane="free" arrivalPos="0.0"><route edges="298298663#0 298298663#0.45 189063912#0 207971475#0 636473899#0" /></vehicle><route id="247" edges="298298663#0 298298663#0.45 189063912#0 207971475#0 636473899#0" /><vehicle id="246" type="motorcycle" depart="0.0" departPos="44.97724844152878" departLane="free" arrivalPos="71.56"><route edges="298298663#0 298298663#0.45 189063912#0 207971475#0 207971475#1 284241336#0 284241336#5 52493742 52493741#0 704293239#0 299506410#0 23183808#0 207979569#0 207979569#3" /></vehicle><route id="246" edges="298298663#0 298298663#0.45 189063912#0 207971475#0 207971475#1 284241336#0 284241336#5 52493742 52493741#0 704293239#0 299506410#0 23183808#0 207979569#0 207979569#3" /><vehicle id="245" type="motorcycle" depart="0.0" departPos="38.027573489370404" departLane="free" arrivalPos="5.698085051921178"><route edges="298298663#0 298298663#0.45 189063912#0 207971475#0 207971475#1 284241336#0 284241336#5 52493742 52493741#0 704293239#0 299506410#0 207979572#0 207979572#0.114 23182767#0" /></vehicle><route id="245" edges="298298663#0 298298663#0.45 189063912#0 207971475#0 207971475#1 284241336#0 284241336#5 52493742 52493741#0 704293239#0 299506410#0 207979572#0 207979572#0.114 23182767#0" /><vehicle id="244" type="motorcycle" depart="0.0" departPos="30.61335911893737" departLane="free" arrivalPos="3.3530953846509957"><route edges="298298663#0 298298663#0.45 189063912#0 207971475#0 207971475#1 51249283" /></vehicle><route id="244" edges="298298663#0 298298663#0.45 189063912#0 207971475#0 207971475#1 51249283" /><vehicle id="243" type="motorcycle" depart="0.0" departPos="0.0" departLane="free" arrivalPos="45.00800869926995"><route edges="298298663#0 298298663#0.45 189063912#0 207971475#0 207971475#1 284241336#0 1098886968#0" /></vehicle><route id="243" edges="298298663#0 298298663#0.45 189063912#0 207971475#0 207971475#1 284241336#0 1098886968#0" /><vehicle id="242" type="motorcycle" depart="0.0" departPos="40.47" departLane="free" arrivalPos="6.87493452865975"><route edges="725187180 298298663#0 298298663#0.45 189063912#0 207971475#0 207971475#1 284241336#0 284241336#5 52493742 52493741#0 704293239#0 299506410#0 207979572#0 207979572#0.114 23182767#0" /></vehicle><route id="242" edges="725187180 298298663#0 298298663#0.45 189063912#0 207971475#0 207971475#1 284241336#0 284241336#5 52493742 52493741#0 704293239#0 299506410#0 207979572#0 207979572#0.114 23182767#0" /><vehicle id="241" type="motorcycle" depart="0.0" departPos="31.806075268390053" departLane="free" arrivalPos="10.786129701826816"><route edges="280005152#0 725187180 298298663#0 298298663#0.45 189063912#0 207971475#0 207971475#1 284241336#0 284241336#5 52493742 52493741#0 704293239#0 299506410#0 207979572#0 207979572#0.114 23182767#0" /></vehicle><route id="241" edges="280005152#0 725187180 298298663#0 298298663#0.45 189063912#0 207971475#0 207971475#1 284241336#0 284241336#5 52493742 52493741#0 704293239#0 299506410#0 207979572#0 207979572#0.114 23182767#0" /><vehicle id="240" type="motorcycle" depart="0.0" departPos="17.75824940753048" departLane="free" arrivalPos="21.997011181122556"><route edges="280005152#0 725187180 298298663#0 298298663#0.45 189063912#0 207971475#0 207971475#1 284241336#0 284241336#5 52493742 52493741#0 704293239#0 299506410#0 23183808#0 207979566#0 23182796#0 23182796#3 23182796#5" /></vehicle><route id="240" edges="280005152#0 725187180