<routes xmlns:xsi="http://www.w3.org/2001/XMLSchema-instance" xsi:noNamespaceSchemaLocation="http://sumo.dlr.de/xsd/routes_file.xsd">
<vehicle id="1" type="motorcycle" depart="0.0" departPos="82.26528897608634" departLane="free" arrivalPos="1.1940007654906117"><route edges="10976960#6 250756985#0" /></vehicle><route id="1" edges="10976960#6 250756985#0" /><vehicle id="694" type="taxi" depart="0.0" departPos="1.9949960361088377" departLane="free" arrivalPos="51.733179355449415"><route edges="311408820#8 23182806#0 52493441#0 52493436#0 52493436#5" /></vehicle><route id="694" edges="311408820#8 23182806#0 52493441#0 52493436#0 52493436#5" /><vehicle id="695" type="taxi" depart="0.0" departPos="8.659833082799734" departLane="free" arrivalPos="10.891233929586049"><route edges="311408820#8 23182806#0 52493441#0 52493436#0 52493436#5 52493436#8 52493436#13 260124786#0 260124786#2 168914459#0 751068056 168914458#0 299510529#0 23182796#0 23182796#3 734707701#9 299510181#0 299510181#3" /></vehicle><route id="695" edges="311408820#8 23182806#0 52493441#0 52493436#0 52493436#5 52493436#8 52493436#13 260124786#0 260124786#2 168914459#0 751068056 168914458#0 299510529#0 23182796#0 23182796#3 734707701#9 299510181#0 299510181#3" /><vehicle id="696" type="taxi" depart="0.0" departPos="14.262416330972316" departLane="free" arrivalPos="6.7286948335229715"><route edges="311408820#8 23182806#0 52493441#0 52493436#0 52493436#5 52493436#8 52493436#13 260124786#0 260124786#2 168914459#0 751068056 168914458#0 299510529#0 299644700#0 299644700#2 299644700#5 299644700#7 299644700#8 23182848#0" /></vehicle><route id="696" edges="311408820#8 23182806#0 52493441#0 52493436#0 52493436#5 52493436#8 52493436#13 260124786#0 260124786#2 168914459#0 751068056 168914458#0 299510529#0 299644700#0 299644700#2 299644700#5 299644700#7 299644700#8 23182848#0" /><vehicle id="697" type="taxi" depart="0.0" departPos="0.0" departLane="free" arrivalPos="6.946415029856332"><route edges="311408820#5 311408820#8 23182806#0 52493441#0 52493436#0 52493436#5 52493436#8 52493436#13 260124786#0 260124786#2 168914459#0 751068056 168914458#0 299510529#0 299644700#0 299644700#2 299644700#5 299644700#7 299644700#8 23182848#0" /></vehicle><route id="697" edges="311408820#5 311408820#8 23182806#0 52493441#0 52493436#0 52493436#5 52493436#8 52493436#13 260124786#0 260124786#2 168914459#0 751068056 168914458#0 299510529#0 299644700#0 299644700#2 299644700#5 299644700#7 299644700#8 23182848#0" /><vehicle id="698" type="car" depart="0.0" departPos="38.14098433777654" departLane="free" arrivalPos="3.485336953131973"><route edges="311408820#0 311408820#5 311408820#8 23182806#0 52493441#0 52493436#0 52493436#5 52493436#8 52493436#13 260124786#0 260124786#2 168914459#0 751068056 168914458#0 299510529#0 299644700#0 299644700#2 299644700#5 299644700#7 299644700#8 298828555#0" /></vehicle><route id="698" edges="311408820#0 311408820#5 311408820#8 23182806#0 52493441#0 52493436#0 52493436#5 52493436#8 52493436#13 260124786#0 260124786#2 168914459#0 751068056 168914458#0 299510529#0 299644700#0 299644700#2 299644700#5 299644700#7 299644700#8 298828555#0" /><vehicle id="699" type="car" depart="0.0" departPos="28.795359528589152" departLane="free" arrivalPos="75.57453147681332"><route edges="311408820#8 23182806#0 52493441#0 52493436#0 52493436#5 52493436#8 52493436#13 260124786#0 260124786#2 168914459#0 751068056 80404724#0 299510181#3 299510181#5 299510181#8 259803255#0 259803255#2 601290888#0" /></vehicle><route id="699" edges="311408820#8 23182806#0 52493441#0 52493436#0 52493436#5 52493436#8 52493436#13 260124786#0 260124786#2 168914459#0 751068056 80404724#0 299510181#3 299510181#5 299510181#8 259803255#0 259803255#2 601290888#0" /><vehicle id="700" type="MediumVehicle" depart="0.0" departPos="23.816071448745504" departLane="free" arrivalPos="3.0743955604647213"><route edges="311408820#8 23182806#0 52493441#0 52493436#0 52493436#5 52493436#8 52493436#13 260124786#0 260124786#2 168914459#0 751068056 168914458#0 299510529#0 299644700#0 299644700#2 299644700#5 299644700#7 299644700#8 298828555#0" /></vehicle><route id="700" edges="311408820#8 23182806#0 52493441#0 52493436#0 52493436#5 52493436#8 52493436#13 260124786#0 260124786#2 168914459#0 751068056 168914458#0 299510529#0 299644700#0 299644700#2 299644700#5 299644700#7 299644700#8 298828555#0" /><vehicle id="701" type="car" depart="0.0" departPos="0.0" departLane="free" arrivalPos="0.0"><route edges="311408820#8 23182806#0 52493441#0 52493436#0 52493436#5 52493436#8 52493436#13 260124786#0 260124786#2 168914459#0 751068056 309269227 327261701#0" /></vehicle><route id="701" edges="311408820#8 23182806#0 52493441#0 52493436#0 52493436#5 52493436#8 52493436#13 260124786#0 260124786#2 168914459#0 751068056 309269227 327261701#0" /><vehicle id="702" type="car" depart="0.0" departPos="48.23" departLane="free" arrivalPos="44.76048298931491"><route edges="311408820#5 311408820#8 23182806#0 52493441#0 52493436#0" /></vehicle><route id="702" edges="311408820#5 311408820#8 23182806#0 52493441#0 52493436#0" /><vehicle id="703" type="car" depart="0.0" departPos="35.645750031953234" departLane="free" arrivalPos="77.71502849007565"><route edges="311408820#5 311408820#8 23182806#0 52493441#0 52493436#0 52493436#5 52493436#8 52493436#13 260124787#0 601290888#0" /></vehicle><route id="703" edges="311408820#5 311408820#8 23182806#0 52493441#0 52493436#0 52493436#5 52493436#8 52493436#13 260124787#0 601290888#0" /><vehicle id="704" type="car" depart="0.0" departPos="54.33744996269967" departLane="free" arrivalPos="7.405910631886111"><route edges="260124785#3 311408820#0 311408820#5 311408820#8 23182806#0 52493441#0 52493436#0 52493436#5 52493436#8 52493436#13 260124786#0 260124786#2 168914459#0 751068056 168914458#0 299510529#0 299644700#0 299644700#2 299644700#5 299644700#7 299644700#8 23182848#0" /></vehicle><route id="704" edges="260124785#3 311408820#0 311408820#5 311408820#8 23182806#0 52493441#0 52493436#0 52493436#5 52493436#8 52493436#13 260124786#0 260124786#2 168914459#0 751068056 168914458#0 299510529#0 299644700#0 299644700#2 299644700#5 299644700#7 299644700#8 23182848#0" /><vehicle id="705" type="motorcycle" depart="0.0" departPos="107.01406946051559" departLane="free" arrivalPos="42.54894727896434"><route edges="23183970#0 52493742 52493741#0 704293239#0 299506410#0 23183808#0 207979569#0 207979569#3 168914464#0" /></vehicle><route id="705" edges="23183970#0 52493742 52493741#0 704293239#0 299506410#0 23183808#0 207979569#0 207979569#3 168914464#0" /><vehicle id="706" type="car" depart="0.0" departPos="90.94803761505793" departLane="free" arrivalPos="1.2713681299664708"><route edges="32295798#0 23182806#0 52493441#0 52493436#0 52493436#5 52493436#8 52493436#13 260124786#0 260124786#2 168914459#0 751068056 168914458#0 299510529#0 299644700#0 299644700#2 299644700#5 299644700#7 299644700#8 298828555#0" /></vehicle><route id="706" edges="32295798#0 23182806#0 52493441#0 52493436#0 52493436#5 52493436#8 52493436#13 260124786#0 260124786#2 168914459#0 751068056 168914458#0 299510529#0 299644700#0 299644700#2 299644700#5 299644700#7 299644700#8 298828555#0" /><vehicle id="693" type="taxi" depart="0.0" departPos="42.31026626638269" departLane="free" arrivalPos="7.949768191723876"><route edges="311408820#5 311408820#8 23182806#0 52493441#0 52493436#0 52493436#5 52493436#8 52493436#13 260124786#0 260124786#2 168914459#0 751068056 168914458#0 299510529#0 299644700#0 299644700#2 299644700#5 299644700#7 299644700#8 23182848#0" /></vehicle><route id="693" edges="311408820#5 311408820#8 23182806#0 52493441#0 52493436#0 52493436#5 52493436#8 52493436#13 260124786#0 260124786#2 168914459#0 751068056 168914458#0 299510529#0 299644700#0 299644700#2 299644700#5 299644700#7 299644700#8 23182848#0" /><vehicle id="707" type="taxi" depart="0.0" departPos="8.50254405789283" departLane="free" arrivalPos="0.0"><route edges="284241336#5 52493742 52493741#0 704293239#0 299506410#0 23183808#0 207979569#0 207979569#3 168914464#0 23183273#0 E7.79.11 168914458#0 299510529#0 299644700#0 299644700#2 299644700#5 299644700#7 299644700#8 298828555#0" /></vehicle><route id="707" edges="284241336#5 52493742 52493741#0 704293239#0 299506410#0 23183808#0 207979569#0 207979569#3 168914464#0 23183273#0 E7.79.11 168914458#0 299510529#0 299644700#0 299644700#2 299644700#5 299644700#7 299644700#8 298828555#0" /><vehicle id="709" type="car" depart="0.0" departPos="52.15846348947162" departLane="free" arrivalPos="3.8976597801698105"><route edges="23182806#0 52493441#0 52493436#0 52493436#5 52493436#8 52493436#13 260124786#0 260124786#2 168914459#0 751068056 168914458#0 299510529#0 299644700#0 299644700#2 299644700#5 299644700#7 299644700#8 298828555#0" /></vehicle><route id="709" edges="23182806#0 52493441#0 52493436#0 52493436#5 52493436#8 52493436#13 260124786#0 260124786#2 168914459#0 751068056 168914458#0 299510529#0 299644700#0 299644700#2 299644700#5 299644700#7 299644700#8 298828555#0" /><vehicle id="710" type="car" depart="0.0" departPos="57.181041584545675" departLane="free" arrivalPos="0.772818643405185"><route edges="23182806#0 52493441#0 52493436#0 52493436#5 52493436#8 52493436#13 260124786#0 260124786#2 168914459#0 751068056 168914458#0 299510529#0 299644700#0 299644700#2 299644700#5 299644700#7 299644700#8 298828555#0" /></vehicle><route id="710" edges="23182806#0 52493441#0 52493436#0 52493436#5 52493436#8 52493436#13 260124786#0 260124786#2 168914459#0 751068056 168914458#0 299510529#0 299644700#0 299644700#2 299644700#5 299644700#7 299644700#8 298828555#0" /><vehicle id="711" type="taxi" depart="0.0" departPos="84.78357576360476" departLane="free" arrivalPos="81.81188870403636"><route edges="32295798#0 23182806#0 52493441#0 52493436#0 52493436#5 52493436#8 52493436#13 260124786#0 260124786#2 168914459#0 751068056 168914458#0 299510530#0 299510530#2 207979569#3 168914464#0" /></vehicle><route id="711" edges="32295798#0 23182806#0 52493441#0 52493436#0 52493436#5 52493436#8 52493436#13 260124786#0 260124786#2 168914459#0 751068056 168914458#0 299510530#0 299510530#2 207979569#3 168914464#0" /><vehicle id="712" type="taxi" depart="0.0" departPos="44.062326871552834" departLane="free" arrivalPos="44.25635609414706"><route edges="23182806#0 52493441#0 52493436#0 52493436#5 52493436#8 23183940#0" /></vehicle><route id="712" edges="23182806#0 52493441#0 52493436#0 52493436#5 52493436#8 23183940#0" /><vehicle id="713" type="taxi" depart="0.0" departPos="53.523520489777326" departLane="free" arrivalPos="77.43372631695824"><route edges="23182806#0 52493441#0 52493436#0 52493436#5 52493436#8 52493436#13 260124787#0 601290888#0" /></vehicle><route id="713" edges="23182806#0 52493441#0 52493436#0 52493436#5 52493436#8 52493436#13 260124787#0 601290888#0" /><vehicle id="714" type="motorcycle" depart="0.0" departPos="45.12576888474299" departLane="free" arrivalPos="0.0"><route edges="704293239#0 299506410#0 207979572#0 207979572#0.114 789796816#0" /></vehicle><route id="714" edges="704293239#0 299506410#0 207979572#0 207979572#0.114 789796816#0" /><vehicle id="715" type="car" depart="0.0" departPos="8.35" departLane="free" arrivalPos="3.664291448598394"><route edges="81916368#0 87082462#0-AddedOnRampEdge 23182767#0" /></vehicle><route id="715" edges="81916368#0 87082462#0-AddedOnRampEdge 23182767#0" /><vehicle id="716" type="taxi" depart="0.0" departPos="0.0" departLane="free" arrivalPos="16.940895179103332"><route edges="687831199#0 167920360#0 23182833#0" /></vehicle><route id="716" edges="687831199#0 167920360#0 23182833#0" /><vehicle id="717" type="car" depart="0.0" departPos="2.5635701292067172" departLane="free" arrivalPos="4.539904331937015"><route edges="E3 167920360#0 167920360#1 23182965#0 207979569#0 299510530#4" /></vehicle><route id="717" edges="E3 167920360#0 167920360#1 23182965#0 207979569#0 299510530#4" /><vehicle id="718" type="motorcycle" depart="0.0" departPos="33.664690183521884" departLane="free" arrivalPos="53.74176957990881"><route edges="299510530#2" /></vehicle><route id="718" edges="299510530#2" /><vehicle id="719" type="taxi" depart="0.0" departPos="0.0" departLane="free" arrivalPos="0.0"><route edges="207979569#0 299510530#4" /></vehicle><route id="719" edges="207979569#0 299510530#4" /><vehicle id="720" type="taxi" depart="0.0" departPos="29.651962042060372" departLane="free" arrivalPos="0.0"><route edges="704293239#0 299506410#0 207979572#0 207979572#0.114 789796816#0" /></vehicle><route id="720" edges="704293239#0 299506410#0 207979572#0 207979572#0.114 789796816#0" /><vehicle id="721" type="car" depart="0.0" departPos="57.79215123388283" departLane="free" arrivalPos="1.9754361164472323"><route edges="704293239#0 299506410#0 207979572#0 207979572#0.114 23182767#0" /></vehicle><route id="721" edges="704293239#0 299506410#0 207979572#0 207979572#0.114 23182767#0" /><vehicle id="708" type="car" depart="0.0" departPos="50.16461069732187" departLane="free" arrivalPos="58.34110812713801"><route edges="23182806#0 52493441#0 52493436#0 52493436#5 52493436#8 52493436#13 260124787#0" /></vehicle><route id="708" edges="23182806#0 52493441#0 52493436#0 52493436#5 52493436#8 52493436#13 260124787#0" /><vehicle id="692" type="car" depart="0.0" departPos="6.844073832890025" departLane="free" arrivalPos="1.9610699721295481"><route edges="207971475#0 207971475#1 284241336#0 284241336#5 52493742 52493741#0 704293239#0 299506410#0 207979572#0 207979572#0.114 23182767#0" /></vehicle><route id="692" edges="207971475#0 207971475#1 284241336#0 284241336#5 52493742 52493741#0 704293239#0 299506410#0 207979572#0 207979572#0.114 23182767#0" /><vehicle id="691" type="car" depart="0.0" departPos="85.0" departLane="free" arrivalPos="9.127721827066674"><route edges="32295709 207971475#0 636473899#0" /></vehicle><route id="691" edges="32295709 207971475#0 636473899#0" /><vehicle id="690" type="taxi" depart="0.0" departPos="36.016587569506775" departLane="free" arrivalPos="0.0"><route edges="23182965#0 207979569#0 207979569#3 168914464#0 167907746#0 704293238#0 23183369#0 284241336#5 52493742 52493741#0 704293239#0 299506410#0 207979572#0 207979572#0.114 789796816#0" /></vehicle><route id="690" edges="23182965#0 207979569#0 207979569#3 168914464#0 167907746#0 704293238#0 23183369#0 284241336#5 52493742 52493741#0 704293239#0 299506410#0 207979572#0 207979572#0.114 789796816#0" /><vehicle id="661" type="taxi" depart="0.0" departPos="90.54870249581943" departLane="free" arrivalPos="0.0"><route edges="52493436#8 52493436#13 260124786#0 260124786#2 168914459#0 751068056 168914458#0 299510529#0 299644700#0 299644700#2 299644700#5 299644700#7 23182837#0" /></vehicle><route id="661" edges="52493436#8 52493436#13 260124786#0 260124786#2 168914459#0 751068056 168914458#0 299510529#0 299644700#0 299644700#2 299644700#5 299644700#7 23182837#0" /><vehicle id="662" type="car" depart="0.0" departPos="95.51726278484705" departLane="free" arrivalPos="1.5362564805439138"><route edges="207971475#1 284241336#0 284241336#5 52493742 52493741#0 704293239#0 299506410#0 207979572#0 207979572#0.114 23182767#0" /></vehicle><route id="662" edges="207971475#1 284241336#0 284241336#5 52493742 52493741#0 704293239#0 299506410#0 207979572#0 207979572#0.114 23182767#0" /><vehicle id="663" type="car" depart="0.0" departPos="105.79954573819404" departLane="free" arrivalPos="4.143480583612208"><route edges="207971475#1 284241336#0 284241336#5 52493742 52493741#0 704293239#0 299506410#0 23183808#0 207979566#0 299644700#0 299644700#2 299644700#5 299644700#7 299644700#8 298828555#0" /></vehicle><route id="663" edges="207971475#1 284241336#0 284241336#5 52493742 52493741#0 704293239#0 299506410#0 23183808#0 207979566#0 299644700#0 299644700#2 299644700#5 299644700#7 299644700#8 298828555#0" /><vehicle id="664" type="bus" depart="0.0" departPos="4.905082161345414" departLane="free" arrivalPos="0.0"><route edges="E3 167920360#0 167920360#1 23182965#0 207979569#0 207979569#3 168914464#0 23183273#0 23183273#0.173 751068056 168914458#0 299510529#0 299644700#0 299644700#2 299644700#5 299644700#7 299644700#8 23182848#0" /></vehicle><route id="664" edges="E3 167920360#0 167920360#1 23182965#0 207979569#0 207979569#3 168914464#0 23183273#0 23183273#0.173 751068056 168914458#0 299510529#0 299644700#0 299644700#2 299644700#5 299644700#7 299644700#8 23182848#0" /><vehicle id="665" type="taxi" depart="0.0" departPos="111.18765100158056" departLane="free" arrivalPos="0.0"><route edges="207971475#1 284241336#0 284241336#5 52493742 52493741#0 704293239#0 299506410#0 207979572#0 207979572#0.114 789796816#0" /></vehicle><route id="665" edges="207971475#1 284241336#0 284241336#5 52493742 52493741#0 704293239#0 299506410#0 207979572#0 207979572#0.114 789796816#0" /><vehicle id="666" type="car" depart="0.0" departPos="112.50217983419196" departLane="free" arrivalPos="64.0863368596111"><route edges="207971475#1 284241336#0 284241336#5 52493742 52493741#0 704293239#0 299506410#0 23183808#0" /></vehicle><route id="666" edges="207971475#1 284241336#0 284241336#5 52493742 52493741#0 704293239#0 299506410#0 23183808#0" /><vehicle id="667" type="taxi" depart="0.0" departPos="64.10076293095065" departLane="free" arrivalPos="0.0"><route edges="23183369#0 284241336#5 52493742 52493741#0 704293239#0 299506410#0 207979572#0 207979572#0.114 789796816#0" /></vehicle><route id="667" edges="23183369#0 284241336#5 52493742 52493741#0 704293239#0 299506410#0 207979572#0 207979572#0.114 789796816#0" /><vehicle id="668" type="car" depart="0.0" departPos="73.97593034276726" departLane="free" arrivalPos="4.065827911977662"><route edges="23183369#0 284241336#5 52493742 52493741#0 704293239#0 299506410#0 207979572#0 207979572#0.114 23182767#0" /></vehicle><route id="668" edges="23183369#0 284241336#5 52493742 52493741#0 704293239#0 299506410#0 207979572#0 207979572#0.114 23182767#0" /><vehicle id="669" type="motorcycle" depart="0.0" departPos="24.494178300421858" departLane="free" arrivalPos="0.0"><route edges="284241336#0 284241336#5 52493742 52493741#0 704293239#0 299506410#0 207979572#0 207979572#0.114 789796816#0" /></vehicle><route id="669" edges="284241336#0 284241336#5 52493742 52493741#0 704293239#0 299506410#0 207979572#0 207979572#0.114 789796816#0" /><vehicle id="670" type="motorcycle" depart="0.0" departPos="118.15842290907385" departLane="free" arrivalPos="3.7513513430810566"><route edges="207971475#1 284241336#0 284241336#5 52493742 52493741#0 704293239#0 299506410#0 207979572#0 207979572#0.114 23182767#0" /></vehicle><route id="670" edges="207971475#1 284241336#0 284241336#5 52493742 52493741#0 704293239#0 299506410#0 207979572#0 207979572#0.114 23182767#0" /><vehicle id="671" type="motorcycle" depart="0.0" departPos="109.16532865341725" departLane="free" arrivalPos="3.648477033694224"><route edges="207971475#1 284241336#0 284241336#5 52493742 52493741#0 704293239#0 299506410#0 207979572#0 207979572#0.114 23182767#0" /></vehicle><route id="671" edges="207971475#1 284241336#0 284241336#5 52493742 52493741#0 704293239#0 299506410#0 207979572#0 207979572#0.114 23182767#0" /><vehicle id="672" type="motorcycle" depart="0.0" departPos="52.15856031198405" departLane="free" arrivalPos="1.9542509157390553"><route edges="207971475#1 284241336#0 284241336#5 52493742 52493741#0 704293239#0 299506410#0 207979572#0 207979572#0.114 23182767#0" /></vehicle><route id="672" edges="207971475#1 284241336#0 284241336#5 52493742 52493741#0 704293239#0 299506410#0 207979572#0 207979572#0.114 23182767#0" /><vehicle id="673" type="taxi" depart="0.0" departPos="17.147917422570437" departLane="free" arrivalPos="5.197021271020863"><route edges="52493742 52493741#0 704293239#0 299506410#0 207979572#0 207979572#0.114 23182767#0" /></vehicle><route id="673" edges="52493742 52493741#0 704293239#0 299506410#0 207979572#0 207979572#0.114 23182767#0" /><vehicle id="674" type="car" depart="0.0" departPos="41.69607547990134" departLane="free" arrivalPos="2.932408737626603"><route edges="52493742 52493741#0 704293239#0 299506410#0 207979572#0 207979572#0.114 23182767#0" /></vehicle><route id="674" edges="52493742 52493741#0 704293239#0 299506410#0 207979572#0 207979572#0.114 23182767#0" /><vehicle id="675" type="motorcycle" depart="0.0" departPos="1.1701786739872835" departLane="free" arrivalPos="33.04927185862934"><route edges="52493741#0 704293239#0 299506410#0 207979572#0 207979572#0.114" /></vehicle><route id="675" edges="52493741#0 704293239#0 299506410#0 207979572#0 207979572#0.114" /><vehicle id="676" type="motorcycle" depart="0.0" departPos="100.69290817487939" departLane="free" arrivalPos="0.0"><route edges="23183970#0 52493742 52493741#0 704293239#0 299506410#0 207979572#0 207979572#0.114 789796816#0" /></vehicle><route id="676" edges="23183970#0 52493742 52493741#0 704293239#0 299506410#0 207979572#0 207979572#0.114 789796816#0" /><vehicle id="677" type="motorcycle" depart="0.0" departPos="106.2524503863969" departLane="free" arrivalPos="97.86462047854886"><route edges="23183970#0 52493742 52493741#0 704293239#0 299506410#0 23183808#0 207979566#0" /></vehicle><route id="677" edges="23183970#0 52493742 52493741#0 704293239#0 299506410#0 23183808#0 207979566#0" /><vehicle id="678" type="motorcycle" depart="0.0" departPos="107.01406946051559" departLane="free" arrivalPos="30.16744408524663"><route edges="23183970#0 52493742 52493741#0 704293239#0 299506410#0 207979572#0 207979572#0.114" /></vehicle><route id="678" edges="23183970#0 52493742 52493741#0 704293239#0 299506410#0 207979572#0 207979572#0.114" /><vehicle id="679" type="motorcycle" depart="0.0" departPos="46.16054545227794" departLane="free" arrivalPos="79.0"><route edges="284241336#5 52493742 52493741#0" /></vehicle><route id="679" edges="284241336#5 52493742 52493741#0" /><vehicle id="680" type="motorcycle" depart="0.0" departPos="12.803888992717916" departLane="free" arrivalPos="5.065560912097056"><route edges="23183369#0 284241336#5 52493742 52493741#0 51249356#0" /></vehicle><route id="680" edges="23183369#0 284241336#5 52493742 52493741#0 51249356#0" /><vehicle id="681" type="motorcycle" depart="0.0" departPos="1.960640789094071" departLane="free" arrivalPos="5.508427038170323"><route edges="23183369#0 284241336#5 52493742 52493741#0 704293239#0 299506410#0 207979572#0 207979572#0.114 23182767#0" /></vehicle><route id="681" edges="23183369#0 284241336#5 52493742 52493741#0 704293239#0 299506410#0 207979572#0 207979572#0.114 23182767#0" /><vehicle id="682" type="bus" depart="0.0" departPos="25.28206238761561" departLane="free" arrivalPos="3.5592467247899084"><route edges="52493742 52493741#0 704293239#0 299506410#0 207979572#0 207979572#0.114 23182767#0" /></vehicle><route id="682" edges="52493742 52493741#0 704293239#0 299506410#0 207979572#0 207979572#0.114 23182767#0" /><vehicle id="683" type="bus" depart="0.0" departPos="46.53629197999967" departLane="free" arrivalPos="0.0"><route edges="52493742 52493741#0 704293239#0 299506410#0 207979572#0 207979572#0.114 789796816#0" /></vehicle><route id="683" edges="52493742 52493741#0 704293239#0 299506410#0 207979572#0 207979572#0.114 789796816#0" /><vehicle id="684" type="car" depart="0.0" departPos="20.435950611257734" departLane="free" arrivalPos="0.0"><route edges="284241336#5 52493742 52493741#0 23183271#0" /></vehicle><route id="684" edges="284241336#5 52493742 52493741#0 23183271#0" /><vehicle id="685" type="car" depart="0.0" departPos="9.112870665657557" departLane="free" arrivalPos="93.96148050452209"><route edges="704293238#0 23183369#0 284241336#5 52493742 52493741#0 704293239#0 299506410#0 23183808#0 207979566#0" /></vehicle><route id="685" edges="704293238#0 23183369#0 284241336#5 52493742 52493741#0 704293239#0 299506410#0 23183808#0 207979566#0" /><vehicle id="686" type="car" depart="0.0" departPos="19.965902700630178" departLane="free" arrivalPos="3.2207135427809614"><route edges="704293238#0 23183369#0 284241336#5 52493742 52493741#0 704293239#0 299506410#0 207979572#0 207979572#0.114 23182767#0" /></vehicle><route id="686" edges="704293238#0 23183369#0 284241336#5 52493742 52493741#0 704293239#0 299506410#0 207979572#0 207979572#0.114 23182767#0" /><vehicle id="687" type="car" depart="0.0" departPos="7.463672750292978" departLane="free" arrivalPos="0.0"><route edges="168914460 704293238#0 23183369#0 284241336#5 52493742 52493741#0 704293239#0 299506410#0 207979572#0 207979572#0.114 789796816#0" /></vehicle><route id="687" edges="168914460 704293238#0 23183369#0 284241336#5 52493742 52493741#0 704293239#0 299506410#0 207979572#0 207979572#0.114 789796816#0" /><vehicle id="688" type="motorcycle" depart="0.0" departPos="0.0" departLane="free" arrivalPos="2.3968631855280598"><route edges="207979569#0 207979569#3 168914464#0 167907746#0 704293238#0 23183369#0 284241336#5 52493742 52493741#0 704293239#0 299506410#0 23183808#0 207979566#0 299644700#0 299644700#2 299644700#5 299644700#7 299644700#8 298828555#0" /></vehicle><route id="688" edges="207979569#0 207979569#3 168914464#0 167907746#0 704293238#0 23183369#0 284241336#5 52493742 52493741#0 704293239#0 299506410#0 23183808#0 207979566#0 299644700#0 299644700#2 299644700#5 299644700#7 299644700#8 298828555#0" /><vehicle id="689" type="car" depart="0.0" departPos="46.96" departLane="free" arrivalPos="0.0"><route edges="260124786#0 260124786#2 168914460 704293238#0 23183369#0 284241336#5 52493742 52493741#0 704293239#0 299506410#0 207979572#0 207979572#0.114 789796816#0" /></vehicle><route id="689" edges="260124786#0 260124786#2 168914460 704293238#0 23183369#0 284241336#5 52493742 52493741#0 704293239#0 299506410#0 207979572#0 207979572#0.114 789796816#0" /><vehicle id="722" type="car" depart="0.0" departPos="64.5045830428241" departLane="free" arrivalPos="4.146700813354285"><route edges="704293239#0 299506410#0 207979572#0 207979572#0.114 23182767#0" /></vehicle><route id="722" edges="704293239#0 299506410#0 207979572#0 207979572#0.114 23182767#0" /><vehicle id="723" type="car" depart="0.0" departPos="73.20981150091833" departLane="free" arrivalPos="3.4579304877984125"><route edges="704293239#0 299506410#0 207979572#0 207979572#0.114 23182767#0" /></vehicle><route id="723" edges="704293239#0 299506410#0 207979572#0 207979572#0.114 23182767#0" /><vehicle id="724" type="car" depart="0.0" departPos="3.6040290309678666" departLane="free" arrivalPos="1.778592179738412"><route edges="299506410#0 207979572#0 207979572#0.114 23182767#0" /></vehicle><route id="724" edges="299506410#0 207979572#0 207979572#0.114 23182767#0" /><vehicle id="725" type="car" depart="0.0" departPos="3.2563596933697987" departLane="free" arrivalPos="2.1770771987272135"><route edges="299506410#0 207979572#0 207979572#0.114 23182767#0" /></vehicle><route id="725" edges="299506410#0 207979572#0 207979572#0.114 23182767#0" /><vehicle id="760" type="taxi" depart="0.0" departPos="17.179780550683272" departLane="free" arrivalPos="0.0"><route edges="222941079#3 222941079#4" /></vehicle><route id="760" edges="222941079#3 222941079#4" /><vehicle id="761" type="taxi" depart="0.0" departPos="11.545014328610815" departLane="free" arrivalPos="0.0"><route edges="222941079#3 222941079#4" /></vehicle><route id="761" edges="222941079#3 222941079#4" /><vehicle id="762" type="taxi" depart="0.0" departPos="23.796024273279325" departLane="free" arrivalPos="0.0"><route edges="222941079#3 222941079#4" /></vehicle><route id="762" edges="222941079#3 222941079#4" /><vehicle id="763" type="taxi" depart="0.0" departPos="16.691118753951944" departLane="free" arrivalPos="36.61908392635175"><route edges="163711428#0 878082497 163711429#0 390115243#0" /></vehicle><route id="763" edges="163711428#0 878082497 163711429#0 390115243#0" /><vehicle id="764" type="taxi" depart="0.0" departPos="0.0" departLane="free" arrivalPos="51.92172931665872"><route edges="10971763#0 10971763#4" /></vehicle><route id="764" edges="10971763#0 10971763#4" /><vehicle id="765" type="taxi" depart="0.0" departPos="0.0" departLane="free" arrivalPos="5.996593410510937"><route edges="10971763#0 10971763#4" /></vehicle><route id="765" edges="10971763#0 10971763#4" /><vehicle id="766" type="taxi" depart="0.0" departPos="23.41" departLane="free" arrivalPos="34.870877061818504"><route edges="163711428#0 878082497 163711429#0 390115243#0" /></vehicle><route id="766" edges="163711428#0 878082497 163711429#0 390115243#0" /><vehicle id="767" type="car" depart="0.0" departPos="12.342085496416036" departLane="free" arrivalPos="5.335019087052702"><route edges="390115233#0 778622871 758432181 10971763#0 10971763#4" /></vehicle><route id="767" edges="390115233#0 778622871 758432181 10971763#0 10971763#4" /><vehicle id="769" type="taxi" depart="0.0" departPos="59.89817507976531" departLane="free" arrivalPos="0.0"><route edges="23182806#0 52493441#0 52493436#0 52493436#5 636473899#15" /></vehicle><route id="769" edges="23182806#0 52493441#0 52493436#0 52493436#5 636473899#15" /><vehicle id="770" type="motorcycle" depart="0.0" departPos="58.84117069889361" departLane="free" arrivalPos="6.462226367804139"><route edges="10971763#0 10971763#4" /></vehicle><route id="770" edges="10971763#0 10971763#4" /><vehicle id="772" type="car" depart="0.0" departPos="6.472069101478148" departLane="free" arrivalPos="0.0"><route edges="222941079#3 222941079#4" /></vehicle><route id="772" edges="222941079#3 222941079#4" /><vehicle id="774" type="car" depart="0.0" departPos="43.3967478700524" departLane="free" arrivalPos="0.0"><route edges="168725561#3 168725561#4 207971478#0 207971478#1 222941079#0 222941079#3 222941079#4" /></vehicle><route id="774" edges="168725561#3 168725561#4 207971478#0 207971478#1 222941079#0 222941079#3 222941079#4" /><vehicle id="775" type="car" depart="0.0" departPos="32.25592640616861" departLane="free" arrivalPos="0.0"><route edges="222941079#3 222941079#4" /></vehicle><route id="775" edges="222941079#3 222941079#4" /><vehicle id="776" type="car" depart="0.0" departPos="64.85954572893732" departLane="fre