<routes xmlns:xsi="http://www.w3.org/2001/XMLSchema-instance" xsi:noNamespaceSchemaLocation="http://sumo.dlr.de/xsd/routes_file.xsd">
<vehicle id="8206" type="car" depart="5.213" departPos="32.51794821298039" departLane="free" arrivalPos="16.164696071207512"><route edges="52493437#2 299257516 10971765 52493436#0 52493436#5 52493436#8 52493436#13 260124786#0 260124786#2 168914459#0 751068056 168914458#0 299510529#0 299644700#0 299644700#2 299644700#5 299644700#7 299644700#8 298828555#0" /></vehicle><route id="8206" edges="52493437#2 299257516 10971765 52493436#0 52493436#5 52493436#8 52493436#13 260124786#0 260124786#2 168914459#0 751068056 168914458#0 299510529#0 299644700#0 299644700#2 299644700#5 299644700#7 299644700#8 298828555#0" /><vehicle id="2" type="MediumVehicle" depart="7.716" departPos="8.329677366198865" departLane="free" arrivalPos="0.0"><route edges="299257516 10971765 52493436#0" /></vehicle><route id="2" edges="299257516 10971765 52493436#0" /><vehicle id="3" type="car" depart="12.512" departPos="9.198255333697368" departLane="free" arrivalPos="50.64145525941395"><route edges="601303882#9" /></vehicle><route id="3" edges="601303882#9" /><vehicle id="6045" type="car" depart="12.929" departPos="8.35" departLane="free" arrivalPos="1.5164035580394266"><route edges="81916368#0" /></vehicle><route id="6045" edges="81916368#0" /><vehicle id="6044" type="motorcycle" depart="12.929" departPos="0.0" departLane="free" arrivalPos="0.0"><route edges="560974709 87082462#0-AddedOnRampEdge 789796816#0" /></vehicle><route id="6044" edges="560974709 87082462#0-AddedOnRampEdge 789796816#0" /><vehicle id="6043" type="car" depart="12.929" departPos="7.364463993045126" departLane="free" arrivalPos="0.0"><route edges="5728492#0" /></vehicle><route id="6043" edges="5728492#0" /><vehicle id="6042" type="car" depart="12.929" departPos="0.7778880853634189" departLane="free" arrivalPos="0.0"><route edges="5728492#0" /></vehicle><route id="6042" edges="5728492#0" /><vehicle id="6041" type="car" depart="12.929" departPos="0.0" departLane="free" arrivalPos="0.0"><route edges="5728492#0" /></vehicle><route id="6041" edges="5728492#0" /><vehicle id="6040" type="car" depart="12.929" departPos="0.0" departLane="free" arrivalPos="0.0"><route edges="5728492#0" /></vehicle><route id="6040" edges="5728492#0" /><vehicle id="6039" type="car" depart="12.929" departPos="107.95611562111688" departLane="free" arrivalPos="107.95611562111688"><route edges="170993800#0" /></vehicle><route id="6039" edges="170993800#0" /><vehicle id="6038" type="car" depart="12.929" departPos="107.95611562111688" departLane="free" arrivalPos="107.5223688520362"><route edges="170993800#0" /></vehicle><route id="6038" edges="170993800#0" /><vehicle id="6036" type="car" depart="12.929" departPos="1.176746038191235" departLane="free" arrivalPos="16.33415603910254"><route edges="87082462#0-AddedOnRampEdge 23182767#0" /></vehicle><route id="6036" edges="87082462#0-AddedOnRampEdge 23182767#0" /><vehicle id="6035" type="car" depart="12.929" departPos="15.797782957918194" departLane="free" arrivalPos="18.886606848945444"><route edges="87082462#0-AddedOnRampEdge 23182767#0" /></vehicle><route id="6035" edges="87082462#0-AddedOnRampEdge 23182767#0" /><vehicle id="6034" type="car" depart="12.929" departPos="20.696422112867506" departLane="free" arrivalPos="11.518610591000257"><route edges="87082462#0-AddedOnRampEdge 23182767#0" /></vehicle><route id="6034" edges="87082462#0-AddedOnRampEdge 23182767#0" /><vehicle id="6033" type="taxi" depart="12.929" departPos="32.38672787482807" departLane="free" arrivalPos="6.278140816448388"><route edges="87082462#0-AddedOnRampEdge 789796816#0" /></vehicle><route id="6033" edges="87082462#0-AddedOnRampEdge 789796816#0" /><vehicle id="6032" type="car" depart="12.929" departPos="58.14424935812651" departLane="free" arrivalPos="23.055556126713217"><route edges="87082462#0-AddedOnRampEdge 23182767#0" /></vehicle><route id="6032" edges="87082462#0-AddedOnRampEdge 23182767#0" /><vehicle id="6031" type="taxi" depart="12.929" departPos="35.46393211036943" departLane="free" arrivalPos="0.0"><route edges="207979572#0.114 789796816#0" /></vehicle><route id="6031" edges="207979572#0.114 789796816#0" /><vehicle id="6030" type="car" depart="12.929" departPos="7.264232734015169" departLane="free" arrivalPos="18.784462968691606"><route edges="23182767#0" /></vehicle><route id="6030" edges="23182767#0" /><vehicle id="6029" type="bus" depart="12.929" departPos="16.014370579464266" departLane="free" arrivalPos="17.20236574612168"><route edges="23182767#0" /></vehicle><route id="6029" edges="23182767#0" /><vehicle id="6028" type="car" depart="12.929" departPos="0.0" departLane="free" arrivalPos="21.540440151364525"><route edges="87082462#0-AddedOnRampEdge 23182767#0" /></vehicle><route id="6028" edges="87082462#0-AddedOnRampEdge 23182767#0" /><vehicle id="6027" type="taxi" depart="12.929" departPos="23.872427381846244" departLane="free" arrivalPos="18.057344085727884"><route edges="207979572#0.114 23182767#0" /></vehicle><route id="6027" edges="207979572#0.114 23182767#0" /><vehicle id="6026" type="car" depart="12.929" departPos="17.43333994900545" departLane="free" arrivalPos="18.903561587407502"><route edges="207979572#0.114 23182767#0" /></vehicle><route id="6026" edges="207979572#0.114 23182767#0" /><vehicle id="6025" type="bus" depart="12.929" departPos="23.406111421695496" departLane="free" arrivalPos="10.567113755190999"><route edges="207979572#0.114 789796816#0" /></vehicle><route id="6025" edges="207979572#0.114 789796816#0" /><vehicle id="6024" type="car" depart="12.929" departPos="88.38220940736147" departLane="free" arrivalPos="23.408748636818554"><route edges="207979572#0 207979572#0.114 23182767#0" /></vehicle><route id="6024" edges="207979572#0 207979572#0.114 23182767#0" /><vehicle id="6023" type="car" depart="12.929" departPos="87.37424993789618" departLane="free" arrivalPos="30.449584425714207"><route edges="299510530#2 299510530#4" /></vehicle><route id="6023" edges="299510530#2 299510530#4" /><vehicle id="6046" type="car" depart="12.929" departPos="0.0" departLane="free" arrivalPos="3.07"><route edges="560974709" /></vehicle><route id="6046" edges="560974709" /><vehicle id="6047" type="car" depart="12.929" departPos="8.304796586771076" departLane="free" arrivalPos="23.51752239762238"><route edges="5728492#0 560974709 87082462#0-AddedOnRampEdge 23182767#0" /></vehicle><route id="6047" edges="5728492#0 560974709 87082462#0-AddedOnRampEdge 23182767#0" /><vehicle id="6048" type="car" depart="12.929" departPos="0.0" departLane="free" arrivalPos="3.07"><route edges="5728492#0 560974709" /></vehicle><route id="6048" edges="5728492#0 560974709" /><vehicle id="6049" type="taxi" depart="12.929" departPos="0.3131812892665991" departLane="free" arrivalPos="15.227534613059916"><route edges="5728492#0 560974709 87082462#0-AddedOnRampEdge 23182767#0" /></vehicle><route id="6049" edges="5728492#0 560974709 87082462#0-AddedOnRampEdge 23182767#0" /><vehicle id="11082" type="car" depart="12.929" departPos="0.0" departLane="free" arrivalPos="39.28"><route edges="E3 167920360#0 167920360#1 23182965#0 207979569#0 207979569#3 168914464#0 167907746#0 704293238#0 207891571#0 168904430 284241337#0 1101347640#0 189063911#0 24218743 977757273 762514801#0 762514801#3 741733384#0 260824573#0 260824573#3 189099792#0 E4 10741751#0 189099791#0" /></vehicle><route id="11082" edges="E3 167920360#0 167920360#1 23182965#0 207979569#0 207979569#3 168914464#0 167907746#0 704293238#0 207891571#0 168904430 284241337#0 1101347640#0 189063911#0 24218743 977757273 762514801#0 762514801#3 741733384#0 260824573#0 260824573#3 189099792#0 E4 10741751#0 189099791#0" /><vehicle id="11088" type="car" depart="12.929" departPos="113.34334090977171" departLane="free" arrivalPos="74.36422601090965"><route edges="1101347640#0 189063911#0 24218743 977757273 762514801#0 762514801#3 741733384#0 222897513#0 222897513#4 222897513#5 54700033#0" /></vehicle><route id="11088" edges="1101347640#0 189063911#0 24218743 977757273 762514801#0 762514801#3 741733384#0 222897513#0 222897513#4 222897513#5 54700033#0" /><vehicle id="11097" type="motorcycle" depart="12.929" departPos="0.32201453789242024" departLane="free" arrivalPos="0.0"><route edges="704293238#0 207891571#0 168904430 284241337#0 1101347640#0 189063911#0 24218743 977757273 762514801#0 762514801#3" /></vehicle><route id="11097" edges="704293238#0 207891571#0 168904430 284241337#0 1101347640#0 189063911#0 24218743 977757273 762514801#0 762514801#3" /><vehicle id="11165" type="car" depart="12.929" departPos="136.29118767595605" departLane="free" arrivalPos="2.946188584115743"><route edges="168914460 704293238#0 207891571#0 168904430 284241337#0 1101347640#0 189063911#0 24218743 977757273 762514801#0 762514801#3 741733384#0 260824573#0 260824573#3 189099793#0 168725548#0 295083398#0" /></vehicle><route id="11165" edges="168914460 704293238#0 207891571#0 168904430 284241337#0 1101347640#0 189063911#0 24218743 977757273 762514801#0 762514801#3 741733384#0 260824573#0 260824573#3 189099793#0 168725548#0 295083398#0" /><vehicle id="11187" type="motorcycle" depart="12.929" departPos="19.360601329945137" departLane="free" arrivalPos="39.28"><route edges="207891571#0 168904430 284241337#0 1101347640#0 189063911#0 24218743 977757273 762514801#0 762514801#3 741733384#0 260824573#0 260824573#3 189099792#0 E4 10741751#0 189099791#0" /></vehicle><route id="11187" edges="207891571#0 168904430 284241337#0 1101347640#0 189063911#0 24218743 977757273 762514801#0 762514801#3 741733384#0 260824573#0 260824573#3 189099792#0 E4 10741751#0 189099791#0" /><vehicle id="11188" type="motorcycle" depart="12.929" departPos="12.803435255222523" departLane="free" arrivalPos="39.28"><route edges="704293238#0 207891571#0 168904430 284241337#0 1101347640#0 189063911#0 24218743 977757273 762514801#0 762514801#3 741733384#0 260824573#0 260824573#3 189099792#0 E4 10741751#0 189099791#0" /></vehicle><route id="11188" edges="704293238#0 207891571#0 168904430 284241337#0 1101347640#0 189063911#0 24218743 977757273 762514801#0 762514801#3 741733384#0 260824573#0 260824573#3 189099792#0 E4 10741751#0 189099791#0" /><vehicle id="11189" type="motorcycle" depart="12.929" departPos="98.06536666701177" departLane="free" arrivalPos="39.28"><route edges="23182965#0 207979569#0 207979569#3 168914464#0 167907746#0 704293238#0 207891571#0 168904430 284241337#0 1101347640#0 189063911#0 24218743 977757273 762514801#0 762514801#3 741733384#0 260824573#0 260824573#3 189099792#0 E4 10741751#0 189099791#0" /></vehicle><route id="11189" edges="23182965#0 207979569#0 207979569#3 168914464#0 167907746#0 704293238#0 207891571#0 168904430 284241337#0 1101347640#0 189063911#0 24218743 977757273 762514801#0 762514801#3 741733384#0 260824573#0 260824573#3 189099792#0 E4 10741751#0 189099791#0" /><vehicle id="11190" type="car" depart="12.929" departPos="71.82846314255914" departLane="free" arrivalPos="39.28"><route edges="167907746#0 704293238#0 207891571#0 168904430 284241337#0 1101347640#0 189063911#0 24218743 977757273 762514801#0 762514801#3 741733384#0 260824573#0 260824573#3 189099792#0 E4 10741751#0 189099791#0" /></vehicle><route id="11190" edges="167907746#0 704293238#0 207891571#0 168904430 284241337#0 1101347640#0 189063911#0 24218743 977757273 762514801#0 762514801#3 741733384#0 260824573#0 260824573#3 189099792#0 E4 10741751#0 189099791#0" /><vehicle id="11191" type="taxi" depart="12.929" departPos="30.336311336726503" departLane="free" arrivalPos="39.28"><route edges="168914464#0 167907746#0 704293238#0 207891571#0 168904430 284241337#0 1101347640#0 189063911#0 24218743 977757273 762514801#0 762514801#3 741733384#0 260824573#0 260824573#3 189099792#0 E4 10741751#0 189099791#0" /></vehicle><route id="11191" edges="168914464#0 167907746#0 704293238#0 207891571#0 168904430 284241337#0 1101347640#0 189063911#0 24218743 977757273 762514801#0 762514801#3 741733384#0 260824573#0 260824573#3 189099792#0 E4 10741751#0 189099791#0" /><vehicle id="11192" type="car" depart="12.929" departPos="45.07039390820815" departLane="free" arrivalPos="52.37478513842237"><route edges="168914464#0 167907746#0 704293238#0 207891571#0 168904430 284241337#0 1101347640#0 189063911#0 24218743 977757273 762514801#0 762514801#3 741733384#0 260824573#0 260824573#3 189099793#0 168725561#0 168725561#3 168725561#4 207971478#0 207971478#1 10971763#4" /></vehicle><route id="11192" edges="168914464#0 167907746#0 704293238#0 207891571#0 168904430 284241337#0 1101347640#0 189063911#0 24218743 977757273 762514801#0 762514801#3 741733384#0 260824573#0 260824573#3 189099793#0 168725561#0 168725561#3 168725561#4 207971478#0 207971478#1 10971763#4" /><vehicle id="11239" type="car" depart="12.929" departPos="5.2980704812232435" departLane="free" arrivalPos="0.6751179921326587"><route edges="52493441#0 52493436#0 52493436#5 52493436#8 52493436#13 260124786#0 260124786#2 168914460 704293238#0 207891571#0 168904430 284241337#0 1101347640#0 189063911#0 24218743 977757273 762514801#0 762514801#3 741733384#0 260824573#0 260824573#3 189099793#0 168725561#0 168725561#3 168725561#4 207971478#0 207971478#1 222941079#0 222941079#3 222941079#4" /></vehicle><route id="11239" edges="52493441#0 52493436#0 52493436#5 52493436#8 52493436#13 260124786#0 260124786#2 168914460 704293238#0 207891571#0 168904430 284241337#0 1101347640#0 189063911#0 24218743 977757273 762514801#0 762514801#3 741733384#0 260824573#0 260824573#3 189099793#0 168725561#0 168725561#3 168725561#4 207971478#0 207971478#1 222941079#0 222941079#3 222941079#4" /><vehicle id="6022" type="car" depart="12.929" departPos="74.08467804932229" departLane="free" arrivalPos="23.518615317220146"><route edges="299510530#2 299510530#4" /></vehicle><route id="6022" edges="299510530#2 299510530#4" /><vehicle id="11264" type="car" depart="12.929" departPos="84.70460429702659" departLane="free" arrivalPos="32.598947966119226"><route edges="23182965#0 207979569#0 207979569#3 168914464#0 167907746#0 704293238#0 207891571#0 168904430 284241337#0 1101347640#0 189063911#0 24218743 977757273 762514801#0 762514801#3 741733384#0 260824573#0 260824573#3 189099793#0 168725561#0 168725561#3 168725561#4 207971472#0" /></vehicle><route id="11264" edges="23182965#0 207979569#0 207979569#3 168914464#0 167907746#0 704293238#0 207891571#0 168904430 284241337#0 1101347640#0 189063911#0 24218743 977757273 762514801#0 762514801#3 741733384#0 260824573#0 260824573#3 189099793#0 168725561#0 168725561#3 168725561#4 207971472#0" /><vehicle id="11266" type="motorcycle" depart="12.929" departPos="3.355145302367716" departLane="free" arrivalPos="0.0"><route edges="5656636#0 687831199#0 167920360#0 167920360#1 23182965#0 207979569#0 207979569#3 168914464#0 167907746#0 704293238#0 207891571#0 168904430 284241337#0 1101347640#0 189063911#0 24218743 977757273 762514801#0 762514801#3 741733384#0 222897513#0 222941080#5 32245113#0" /></vehicle><route id="11266" edges="5656636#0 687831199#0 167920360#0 167920360#1 23182965#0 207979569#0 207979569#3 168914464#0 167907746#0 704293238#0 207891571#0 168904430 284241337#0 1101347640#0 189063911#0 24218743 977757273 762514801#0 762514801#3 741733384#0 222897513#0 222941080#5 32245113#0" /><vehicle id="11268" type="bus" depart="12.929" departPos="91.67495722391668" departLane="free" arrivalPos="39.28"><route edges="23182965#0 207979569#0 207979569#3 168914464#0 167907746#0 704293238#0 207891571#0 168904430 284241337#0 1101347640#0 189063911#0 24218743 977757273 762514801#0 762514801#3 741733384#0 260824573#0 260824573#3 189099792#0 E4 10741751#0 189099791#0" /></vehicle><route id="11268" edges="23182965#0 207979569#0 207979569#3 168914464#0 167907746#0 704293238#0 207891571#0 168904430 284241337#0 1101347640#0 189063911#0 24218743 977757273 762514801#0 762514801#3 741733384#0 260824573#0 260824573#3 189099792#0 E4 10741751#0 189099791#0" /><vehicle id="11269" type="car" depart="12.929" departPos="10.14611856643289" departLane="free" arrivalPos="1.8237675973561263"><route edges="167920360#1 23182965#0 207979569#0 207979569#3 168914464#0 167907746#0 704293238#0 207891571#0 168904430 284241337#0 1101347640#0 189063911#0 24218743 977757273 762514801#0 762514801#3 741733384#0 260824573#0 260824573#3 189099792#0 -384593010#2 -887747035#0 384593009 384593008#0 -82682796 -261671453 -10976435#7 -10976435#6 -10976435#3" /></vehicle><route id="11269" edges="167920360#1 23182965#0 207979569#0 207979569#3 168914464#0 167907746#0 704293238#0 207891571#0 168904430 284241337#0 1101347640#0 189063911#0 24218743 977757273 762514801#0 762514801#3 741733384#0 260824573#0 260824573#3 189099792#0 -384593010#2 -887747035#0 384593009 384593008#0 -82682796 -261671453 -10976435#7 -10976435#6 -10976435#3" /><vehicle id="11270" type="car" depart="12.929" departPos="0.0" departLane="free" arrivalPos="1.7862338731045335"><route edges="5656636#0 687831199#0 167920360#0 167920360#1 23182965#0 207979569#0 207979569#3 168914464#0 167907746#0 704293238#0 207891571#0 168904430 284241337#0 1101347640#0 189063911#0 24218743 977757273 762514801#0 32357772#9 32357772#14 10741722#0" /></vehicle><route id="11270" edges="5656636#0 687831199#0 167920360#0 167920360#1 23182965#0 207979569#0 207979569#3 168914464#0 167907746#0 704293238#0 207891571#0 168904430 284241337#0 1101347640#0 189063911#0 24218743 977757273 762514801#0 32357772#9 32357772#14 10741722#0" /><vehicle id="11277" type="taxi" depart="12.929" departPos="3.919825695584481" departLane="free" arrivalPos="41.31717779880092"><route edges="167920360#0 167920360#1 23182965#0 207979569#0 207979569#3 168914464#0 167907746#0 704293238#0 207891571#0 168904430 284241337#0 1101347640#0 189063911#0 24218743 977757273 762514801#0 762514801#3 741733384#0 260824573#0 260824573#3 189099793#0 168725561#0 168725561#3 168725561#4 207971472#0 243850915#0 243850915#1 163711428#0 878082497 163711429#0 390115243#0" /></vehicle><route id="11277" edges="167920360#0 167920360#1 23182965#0 207979569#0 207979569#3 168914464#0 167907746#0 704293238#0 207891571#0 168904430 284241337#0 1101347640#0 189063911#0 24218743 977757273 762514801#0 762514801#3 741733384#0 260824573#0 260824573#3 189099793#0 168725561#0 168725561#3 168725561#4 207971472#0 243850915#0 243850915#1 163711428#0 878082497 163711429#0 390115243#0" /><vehicle id="11284" type="taxi" depart="12.929" departPos="48.34497910794306" departLane="free" arrivalPos="39.28"><route edges="751068056 168914458#0 299510530#0 299510530#2 207979569#3 168914464#0 167907746#0 704293238#0 207891571#0 168904430 284241337#0 1101347640#0 189063911#0 24218743 977757273 762514801#0 762514801#3 741733384#0 260824573#0 260824573#3 189099792#0 E4 10741751#0 189099791#0" /></vehicle><route id="11284" edges="751068056 168914458#0 299510530#0 299510530#2 207979569#3 168914464#0 167907746#0 704293238#0 207891571#0 168904430 284241337#0 1101347640#0 189063911#0 24218743 977757273 762514801#0 762514801#3 741733384#0 260824573#0 260824573#3 189099792#0 E4 10741751#0 189099791#0" /><vehicle id="11288" type="bus" depart="12.929" departPos="53.16296772598776" departLane="free" arrivalPos="40.895783326326416"><route edges="168914464#0 167907746#0 704293238#0 207891571#0 168904430 284241337#0 1101347640#0 189063911#0 24218743 977757273 762514801#0 762514801#3 741733384#0 260824573#0 260824573#3 189099793#0 168725548#0 295083398#0 168725546#0 243850915#0 243850915#1 163711428#0 878082497 163711429#0 390115243#0" /></vehicle><route id="11288" edges="168914464#0 167907746#0 704293238#0 207891571#0 168904430 284241337#0 1101347640#0 189063911#0 24218743 977757273 762514801#0 762514801#3 741733384#0 260824573#0 260824573#3 189099793#0 168725548#0 295083398#0 168725546#0 243850915#0 243850915#1 163711428#0 878082497 163711429#0 390115243#0" /><vehicle id="11387" type="HeavyVehicle" depart="12.929" departPos="57.567181666640025" departLane="free" arrivalPos="3.1027988961333706"><route edges="10741757#7 10741757#8" /></vehicle><route id="11387" edges="10741757#7 10741757#8" /><vehicle id="11388" type="car" depart="12.929" departPos="38.94672001081586" departLane="free" arrivalPos="2.1776942421112047"><route edges="10741757#7 10741757#8" /></vehicle><route id="11388" edges="10741757#7 10741757#8" /><vehicle id="11389" type="motorcycle" depart="12.929" departPos="50.308361870577244" departLane="free" arrivalPos="61.08434978981496"><route edges="32357772#9" /></vehicle><route id="11389" edges="32357772#9" /><vehicle id="6050" type="motorcycle" depart="12.929" departPos="20.37471362819906" departLane="free" arrivalPos="0.0"><route edges="167920360#0 167920360#1 23182965#0 207979569#0" /></vehicle><route id="6050" edges="167920360#0 167920360#1 23182965#0 207979569#0" /><vehicle id="11265" type="taxi" depart="12.929" departPos="73.65695650382332" departLane="free" arrivalPos="1.7646230986529117"><route edges="23182965#0 207979569#0 207979569#3 168914464#0 167907746#0 704293238#0 207891571#0 168904430 284241337#0 1101347640#0 189063911#0 24218743 977757273 762514801#0 762514801#3 741733384#0 260824573#0 260824573#3 189099793#0 168725561#0 168725561#3 168725561#4 207971478#0 207971478#1 222941079#0 222941079#3 222941079#4" /></vehicle><route id="11265" edges="23182965#0 207979569#0 207979569#3 168914464#0 167907746#0 704293238#0 207891571#0 168904430 284241337#0 1101347640#0 189063911#0 24218743 977757273 762514801#0 762514801#3 741733384#0 260824573#0 260824573#3 189099793#0 168725561#0 168725561#3 168725561#4 207971478#0 207971478#1 222941079#0 222941079#3 222941079#4" /><vehicle id="6021" type="car" depart="12.929" departPos="80.16835071745966" departLane="free" arrivalPos="18.062546852734446"><route edges="207979572#0 207979572#0.114 23182767#0" /></vehicle><route id="6021" edges="207979572#0 207979572#0.114 23182767#0" /><vehicle id="6019" type="car" depart="12.929" departPos="70.22626946200842" departLane="free" arrivalPos="17.53345212611499"><route edges="207979572#0 207979572#0.114 23182767#0" /></vehicle><route id="6019" edges="207979572#0 207979572#0.114 23182767#0" /><vehicle id="11080" type="car" depart="12.929" departPos="4.847888801383659" departLane="free" arrivalPos="39.28"><route edges="168914464#0 167907746#0 704293238#0 207891571#0 168904430 284241337#0 1101347640#0 189063911#0 24218743 977757273 762514801#0 762514801#3 741733384#0 260824573#0 260824573#3 189099792#0 E4 10741751#0 189099791#0" /></vehicle><route id="11080" edges="168914464#0 167907746#0 704293238#0 207891571#0 168904430 284241337#0 1101347640#0 189063911#0 24218743 977757273 762514801#0 762514801#3 741733384#0 260824573#0 260824573#3 189099792#0 E4 10741751#0 189099791#0" /><vehicle id="11399" type="car" depart="12.929" departPos="45.45390795147113" departLane="free" arrivalPos="57.56152808558627"><route edges="311408820#5 10741747#0 260824573#0 10741757#4" /></vehicle><route id="11399" edges="311408820#5 10741747#0 260824573#0 10741757#4" /><vehicle id="11401" type="car" depart="12.929" departPos="0.5646528649288648" departLane="free" arrivalPos="2.2695521195716983"><route edges="311408820#5" /></vehicle><route id="11401" edges="311408820#5" /><vehicle id="11402" type="car" depart="12.929" departPos="99.63" departLane="free" arrivalPos="2.834907089710777"><route edges="10741757#4 10741757#7 10741757#8" /></vehicle><route id="11402" edges="10741757#4 10741757#7 10741757#8" /><vehicle id="11405" type="car" depart="12.929" departPos="58.95331952813785" departLane="free" arrivalPos="10.695638553467626"><route edges="260124785#3 311408820#0 10741757#7" /></vehicle><route id="11405" edges="260124785#3 311408820#0 10741757#7" /><vehicle id="11408" type="taxi" depart="12.929" departPos="0.0" departLane="free" arrivalPos="32.50225773996343"><route edges="260824573#3" /></vehicle><route id="11408" edges="260824573#3" /><vehicle id="11409" type="taxi" depart="12.929" departPos="36.49062299175932" departLane="free" arrivalPos="15.212268518988457"><route edges="311408820#8 23182806#0" /></vehicle><route id="11409" edges="311408820#8 23182806#0" /><vehicle id="13782" type="taxi" depart="12.929" departPos="26.54649994081686" departLane="free" arrivalPos="2.2561528516084337"><route edges="222897513#4 222897513#5 384593008#0 -82682796 -261671453 -10976435#7 -10976435#6 -10976435#3" /></vehicle><route id="13782" edges="222897513#4 222897513#5 384593008#0 -82682796 -261671453 -10976435#7 -10976435#6 -10976435#3" /><vehicle id="13781" type="taxi" depart="12.929" departPos="89.60945484063583" departLane="free" arrivalPos="39.28"><route edges="222897513#0 222897513#4 222897513#5 54700033#0 189099791#0" /></vehicle><route id="13781" edges="222897513#0 222897513#4 222897513#5 54700033#0 189099791#0" /><vehicle id="13780" type="taxi" depart="12.929" departPos="0.0" departLane="free" arrivalPos="38.466375825092385"><route edges="10741751#0 189099791#0" /></vehicle><route id="13780" edges="10741751#0 189099791#0" /><vehicle id="13779" type="taxi" depart="12.929" departPos="0.0" departLane="free" arrivalPos="39.28"><route edges="E4 10741751#0 189099791#0" /></vehicle><route id="13779" edges="E4 10741751#0 189099791#0" /><vehicle id="11504" type="bus" depart="12.929" departPos="111.07285835931772" departLane="free" arrivalPos="24.886763691555313"><route edges="260124785#3 311408820#0 311408820#5 311408820#8 23182806#0 52493441#0 52493436#0 52493436#5 52493436#8 52493436#13 260124786#0 260124786#2 168914460 704293238#0 207891571#0 168904430 284241337#0 1101347640#0" /></vehicle><route id="11504" edges="260124785#3 311408820#0 311408820#5 311408820#8 23182806#0 52493441#0 52493436#0 52493436#5 52493436#8 52493436#13 260124786#0 260124786#2 168914460 704293238#0 207891571#0 168904430 284241337#0 1101347640#0" /><vehicle id="13777" type="motorcycle" depart="12.929" departPos="0.0" departLane="free" arrivalPos="2.2055418357113084"><route edges="222899032#0 222899032#1 284503674#0 972965170#0 972965169 10976960#2" /></vehicle><route id="13777" edges="222899032#0 222899032#1 284503674#0 972965170#0 972965169 10976960#2" /><vehicle id="13776" type="car" depart="12.929" departPos="75.86184095052919" departLane="free" arrivalPos="4.943247920143136"><route edges="10741760#2 222897512#0 222897512#2 222897512#3 261671452#0 261671452#2" /></vehicle><route id="13776" edges="10741760#2 222897512#0 222897512#2 222897512#3 261671452#0 261671452#2" /><vehicle id="13775" type="car" depart="12.929" departPos="70.76397320034015" departLane="free" arrivalPos="2.2226618214105898"><route edges="10741760#2 222899032#0 222899032#1 284503674#0 972965170#0 972965169 10976960#2" /></vehicle><route id="13775" edges="10741760#2 222899032#0 222899032#1 284503674#0 972965170#0 972965169 10976960#2" /><vehicle id="13774" type="bus" depart="12.929" departPos="57.780012189886335" departLane="free" arrivalPos="2.429550801784609"><route edges="10741760#2 222899032#0 222899032#1 284503674#0 972965170#0 972965169 10976960#2" /></vehicle><route id="13774" edges="10741760#2 222899032#0 222899032#1 284503674#0 972965170#0 972965169 10976960#2" /><vehicle id="13773" type="MediumVehicle" depart="12.929" departPos="45.032699356010845" departLane="free" arrivalPos="4.943247920143136"><route edges="10741760#2 222897512#0 222897512#2 222897512#3 261671452#0 261671452#2" /></vehicle><route id="13773" edges="10741760#2 222897512#0 222897512#2 222897512#3 261671452#0 261671452#2" /><vehicle id="13772" type="car" depart="12.929" departPos="35.6487949178759" departLane="free" arrivalPos="43.43122298569901"><route edges="10741760#2 222897512#0 222897512#2 222897512#3 261671452#0" /></vehicle><route id="13772" edges="10741760#2 222897512#0 222897512#2 222897512#3 261671452#0" /><vehicle id="13771" type="car" depart="12.929" departPos="30.041263710753828" departLane="free" arrivalPos="4.943247920143136"><route edges="10741760#2 222897512#0 222897512#2 222897512#3 261671452#0 261671452#2" /></vehicle><route id="13771" edges="10741760#2 222897512#0 222897512#2 222897512#3 261671452#0 261671452#2" /><vehicle id="11599" type="motorcycle" depart="12.929" departPos="143.92751439781208" departLane="free" arrivalPos="36.54082921474345"><route edges="-168737311#12 -168737311#3 -311408820#10 -311408820#7 -311408820#4 311453391#0 168725546#0 243850915#0 243850915#1 163711428#0 878082497 163711429#0 390115243#0" /></vehicle><route id="11599" edges="-168737311#12 -168737311#3 -311408820#10 -311408820#7 -311408820#4 311453391#0 168725546#0 243850915#0 243850915#1 163711428#0 878082497 163711429#0 390115243#0" /><vehicle id="13769" type="car" depart="12.929" departPos="5.4008446762194495" departLane="free" arrivalPos="2.714646883351535"><route edges="-10976435#6 -10976435#3" /></vehicle><route id="13769" edges="-10976435#6 -10976435#3" /><vehicle id="13768" type="car" depart="12.929" departPos="0.0" departLane="free" arrivalPos="39.28"><route edges="261671453 82682796 384593007 54700033#0 189099791#0" /></vehicle><route id="13768" edges="261671453 82682796 384593007 54700033#0 189099791#0" /><vehicle id="11603" type="bus" depart="12.929" departPos="139.8672808519042" departLane="free" arrivalPos="39.60034826592982"><route edges="-168737311#12 -168737311#3 -311408820#10 -311408820#7 -311408820#4 311453391#0 168725546#0 243850915#0 243850915#1 163711428#0 878082497 163711429#0 390115243#0" /></vehicle><route id="11603" edges="-168737311#12 -168737311#3 -311408820#10 -311408820#7 -311408820#4 311453391#0 168725546#0 243850915#0 243850915#1 163711428#0 878082497 163711429#0 390115243#0" /><vehicle id="13766" type="car" depart="12.929" departPos="0.0" departLane="free" arrivalPos="0.0"><route edges="222899032#1 261671454#0 887747034 887747035#0 384593010#2 E4 10741751#0" /></vehicle><route id="13766" edges="222899032#1 261671454#0 887747034 887747035#0 384593010#2 E4 10741751#0" /><vehicle id="11395" type="car" depart="12.929" departPos="52.66" departLane="free" arrivalPos="33.21036425742549"><route edges="977757273