<routes xmlns:xsi="http://www.w3.org/2001/XMLSchema-instance" xsi:noNamespaceSchemaLocation="http://sumo.dlr.de/xsd/routes_file.xsd">
<vehicle id="1" type="taxi" depart="0.0" departPos="79.65040986996236" departLane="free" arrivalPos="12.019528842172674"><route edges="10741722#2 741087756#0" /></vehicle><route id="1" edges="10741722#2 741087756#0" /><vehicle id="97" type="taxi" depart="0.0" departPos="33.010030396150384" departLane="free" arrivalPos="75.85650768682953"><route edges="601303882#3 52493436#5 52493436#8 52493436#13 260124787#0 601290888#0" /></vehicle><route id="97" edges="601303882#3 52493436#5 52493436#8 52493436#13 260124787#0 601290888#0" /><vehicle id="98" type="car" depart="0.0" departPos="27.127699029391984" departLane="free" arrivalPos="18.522527489219485"><route edges="601303882#3 52493436#5 52493436#8 52493436#13 260124786#0 260124786#2 168914459#0 751068056 168914458#0 299510529#0 299644700#0 299644700#2 299644700#5 299644700#7 299644700#8 298828555#0" /></vehicle><route id="98" edges="601303882#3 52493436#5 52493436#8 52493436#13 260124786#0 260124786#2 168914459#0 751068056 168914458#0 299510529#0 299644700#0 299644700#2 299644700#5 299644700#7 299644700#8 298828555#0" /><vehicle id="99" type="car" depart="0.0" departPos="22.7008975058718" departLane="free" arrivalPos="22.34875536403386"><route edges="601303882#3 52493436#5 52493436#8 52493436#13 260124786#0 260124786#2 E7 E7.79.11" /></vehicle><route id="99" edges="601303882#3 52493436#5 52493436#8 52493436#13 260124786#0 260124786#2 E7 E7.79.11" /><vehicle id="100" type="car" depart="0.0" departPos="17.838943519781775" departLane="free" arrivalPos="0.19068753155806484"><route edges="601303882#3 52493436#5 52493436#8 52493436#13 260124786#0 260124786#2 168914460 704293238#0 23183369#0 284241336#5 52493742 52493741#0 704293239#0 299506410#0 207979572#0 207979572#0.114 789796816#0" /></vehicle><route id="100" edges="601303882#3 52493436#5 52493436#8 52493436#13 260124786#0 260124786#2 168914460 704293238#0 23183369#0 284241336#5 52493742 52493741#0 704293239#0 299506410#0 207979572#0 207979572#0.114 789796816#0" /><vehicle id="101" type="car" depart="0.0" departPos="48.23" departLane="free" arrivalPos="13.071901393445398"><route edges="311408820#5 311408820#8 23182806#0 52493441#0 52493436#0 52493436#5 52493436#8 52493436#13 260124786#0 260124786#2 168914459#0 751068056 168914458#0 299510529#0 299644700#0 299644700#2 299644700#5 299644700#7 299644700#8 298828555#0" /></vehicle><route id="101" edges="311408820#5 311408820#8 23182806#0 52493441#0 52493436#0 52493436#5 52493436#8 52493436#13 260124786#0 260124786#2 168914459#0 751068056 168914458#0 299510529#0 299644700#0 299644700#2 299644700#5 299644700#7 299644700#8 298828555#0" /><vehicle id="102" type="taxi" depart="0.0" departPos="14.280847480896938" departLane="free" arrivalPos="0.0"><route edges="168737311#4 189063911#0 24218743 977757273 762514801#0 762514801#3 741733384#0 260824573#0 260824573#3 189099793#0 168725548#0" /></vehicle><route id="102" edges="168737311#4 189063911#0 24218743 977757273 762514801#0 762514801#3 741733384#0 260824573#0 260824573#3 189099793#0 168725548#0" /><vehicle id="103" type="taxi" depart="0.0" departPos="29.66235469123971" departLane="free" arrivalPos="8.497015184631822"><route edges="52493441#0 52493436#0 52493436#5" /></vehicle><route id="103" edges="52493441#0 52493436#0 52493436#5" /><vehicle id="104" type="car" depart="0.0" departPos="18.173108356841237" departLane="free" arrivalPos="11.07366521126252"><route edges="52493441#0 52493436#0 52493436#5" /></vehicle><route id="104" edges="52493441#0 52493436#0 52493436#5" /><vehicle id="106" type="motorcycle" depart="0.0" departPos="46.849204333681726" departLane="free" arrivalPos="7.090334218850938"><route edges="10971765 52493436#0 52493436#5" /></vehicle><route id="106" edges="10971765 52493436#0 52493436#5" /><vehicle id="108" type="taxi" depart="0.0" departPos="80.55" departLane="free" arrivalPos="73.79833136852548"><route edges="23183931 601303882#9" /></vehicle><route id="108" edges="23183931 601303882#9" /><vehicle id="109" type="car" depart="0.0" departPos="0.0" departLane="free" arrivalPos="11.859496454033659"><route edges="10741757#4 311408820#5 311408820#8 168737311#0 168737311#4 32295709 207971475#0" /></vehicle><route id="109" edges="10741757#4 311408820#5 311408820#8 168737311#0 168737311#4 32295709 207971475#0" /><vehicle id="110" type="car" depart="0.0" departPos="74.56576627225641" departLane="free" arrivalPos="75.47160579572879"><route edges="670872012#0 280005152#0 725187180 298298663#0 298298663#0.45 189063912#0 207971475#0 207971475#1 51249283 -168904430 23183371#0 23183371#3 260124787#0 601290888#0" /></vehicle><route id="110" edges="670872012#0 280005152#0 725187180 298298663#0 298298663#0.45 189063912#0 207971475#0 207971475#1 51249283 -168904430 23183371#0 23183371#3 260124787#0 601290888#0" /><vehicle id="111" type="car" depart="0.0" departPos="74.56576627225641" departLane="free" arrivalPos="15.288493458471837"><route edges="670872012#0 280005152#0 725187180 298298663#0 298298663#0.45 189063912#0 207971475#0 207971475#1 284241336#0 284241336#5 52493742 52493741#0 704293239#0 299506410#0 23183808#0 207979566#0 299644700#0 299644700#2 299644700#5 299644700#7 299644700#8 298828555#0" /></vehicle><route id="111" edges="670872012#0 280005152#0 725187180 298298663#0 298298663#0.45 189063912#0 207971475#0 207971475#1 284241336#0 284241336#5 52493742 52493741#0 704293239#0 299506410#0 23183808#0 207979566#0 299644700#0 299644700#2 299644700#5 299644700#7 299644700#8 298828555#0" /><vehicle id="112" type="taxi" depart="0.0" departPos="47.57687064186625" departLane="free" arrivalPos="4.995548678963308"><route edges="32295798#0 168737311#0 168737311#4 32295709 207971475#0 207971475#1 284241336#0 284241336#5 52493742 52493741#0 704293239#0 299506410#0 207979572#0 207979572#0.114 23182767#0" /></vehicle><route id="112" edges="32295798#0 168737311#0 168737311#4 32295709 207971475#0 207971475#1 284241336#0 284241336#5 52493742 52493741#0 704293239#0 299506410#0 207979572#0 207979572#0.114 23182767#0" /><vehicle id="113" type="car" depart="0.0" departPos="11.493003679745797" departLane="free" arrivalPos="4.803842237764763"><route edges="260124785#3 311408820#0 311408820#5 311408820#8 168737311#0 168737311#4 32295709 207971475#0 207971475#1 284241336#0 284241336#5 52493742 52493741#0 704293239#0 299506410#0 207979572#0 207979572#0.114 23182767#0" /></vehicle><route id="113" edges="260124785#3 311408820#0 311408820#5 311408820#8 168737311#0 168737311#4 32295709 207971475#0 207971475#1 284241336#0 284241336#5 52493742 52493741#0 704293239#0 299506410#0 207979572#0 207979572#0.114 23182767#0" /><vehicle id="96" type="motorcycle" depart="0.0" departPos="68.7577269941167" departLane="free" arrivalPos="45.735243556725315"><route edges="260124785#3 311408820#0 311408820#5 311408820#8 23182806#0 52493441#0 52493436#0 52493436#5" /></vehicle><route id="96" edges="260124785#3 311408820#0 311408820#5 311408820#8 23182806#0 52493441#0 52493436#0 52493436#5" /><vehicle id="114" type="motorcycle" depart="0.0" departPos="28.486485388460263" departLane="free" arrivalPos="54.61900859590935"><route edges="311408820#0 311408820#5 311408820#8 168737311#0 168737311#4 32295709 207971475#0 207971475#1 284241336#0 1098886968#0" /></vehicle><route id="114" edges="311408820#0 311408820#5 311408820#8 168737311#0 168737311#4 32295709 207971475#0 207971475#1 284241336#0 1098886968#0" /><vehicle id="95" type="car" depart="0.0" departPos="26.84913318786728" departLane="free" arrivalPos="2.6862501652157498"><route edges="311408820#5 10741747#0 222897513#0 222941080#5 972965169 10976960#2" /></vehicle><route id="95" edges="311408820#5 10741747#0 222897513#0 222941080#5 972965169 10976960#2" /><vehicle id="93" type="car" depart="0.0" departPos="16.310091832043973" departLane="free" arrivalPos="11.452877331430784"><route edges="52493441#0 52493436#0 52493436#5 52493436#8 52493436#13 260124787#0 601290889#0 23183949#23 33878737#0" /></vehicle><route id="93" edges="52493441#0 52493436#0 52493436#5 52493436#8 52493436#13 260124787#0 601290889#0 23183949#23 33878737#0" /><vehicle id="78" type="motorcycle" depart="0.0" departPos="12.472801106719574" departLane="free" arrivalPos="41.21301988498307"><route edges="249412138#5 207971472#0 249412140#0 260124785#0 260124785#3 311408820#0 311408820#5 311408820#8 168737311#0 168737311#4" /></vehicle><route id="78" edges="249412138#5 207971472#0 249412140#0 260124785#0 260124785#3 311408820#0 311408820#5 311408820#8 168737311#0 168737311#4" /><vehicle id="79" type="car" depart="0.0" departPos="112.85" departLane="free" arrivalPos="7.087457882202096"><route edges="260124785#3 311408820#0 311408820#5 311408820#8 23182806#0 52493441#0 52493436#0 52493436#5" /></vehicle><route id="79" edges="260124785#3 311408820#0 311408820#5 311408820#8 23182806#0 52493441#0 52493436#0 52493436#5" /><vehicle id="80" type="motorcycle" depart="0.0" departPos="111.24249719811934" departLane="free" arrivalPos="44.09505531514817"><route edges="-168737311#12 -168737311#3 -311408820#10 -311408820#7 -311408820#4 311453391#0 168725546#0 243850915#0 243850915#1 163711428#0 878082497 163711429#0 390115243#0" /></vehicle><route id="80" edges="-168737311#12 -168737311#3 -311408820#10 -311408820#7 -311408820#4 311453391#0 168725546#0 243850915#0 243850915#1 163711428#0 878082497 163711429#0 390115243#0" /><vehicle id="81" type="car" depart="0.0" departPos="35.7400751736258" departLane="free" arrivalPos="45.9112065840891"><route edges="-311408820#10 -311408820#7 -311408820#4 311453391#0 168725546#0 243850915#0 243850915#1 163711428#0 878082497 163711429#0 390115243#0" /></vehicle><route id="81" edges="-311408820#10 -311408820#7 -311408820#4 311453391#0 168725546#0 243850915#0 243850915#1 163711428#0 878082497 163711429#0 390115243#0" /><vehicle id="82" type="motorcycle" depart="0.0" departPos="8.798695923199553" departLane="free" arrivalPos="45.32861524534722"><route edges="-311408820#10 -311408820#7 -311408820#4 311453391#0 168725546#0 243850915#0 243850915#1 163711428#0 878082497 163711429#0 390115243#0" /></vehicle><route id="82" edges="-311408820#10 -311408820#7 -311408820#4 311453391#0 168725546#0 243850915#0 243850915#1 163711428#0 878082497 163711429#0 390115243#0" /><vehicle id="83" type="motorcycle" depart="0.0" departPos="46.93891455924395" departLane="free" arrivalPos="0.7236012580988831"><route edges="-311408820#4 311453391#0 168725546#0 243850913#0 31985292#0" /></vehicle><route id="83" edges="-311408820#4 311453391#0 168725546#0 243850913#0 31985292#0" /><vehicle id="84" type="bus" depart="0.0" departPos="131.8269333971342" departLane="free" arrivalPos="77.38473335024395"><route edges="-168737311#12 -168737311#3 -311408820#10 -311408820#7 -311408820#4 311453391#0 168725546#0 243850915#0 243850915#1 41806625#0 400829834#0 163711426#0 163711426#2 878082499#0 249697226#0 249697226#1 295083400#0" /></vehicle><route id="84" edges="-168737311#12 -168737311#3 -311408820#10 -311408820#7 -311408820#4 311453391#0 168725546#0 243850915#0 243850915#1 41806625#0 400829834#0 163711426#0 163711426#2 878082499#0 249697226#0 249697226#1 295083400#0" /><vehicle id="85" type="car" depart="0.0" departPos="42.39440467610183" departLane="free" arrivalPos="35.16413352178927"><route edges="762514801#3 741733384#0 260824573#0 260824573#3 189099792#0" /></vehicle><route id="85" edges="762514801#3 741733384#0 260824573#0 260824573#3 189099792#0" /><vehicle id="86" type="car" depart="0.0" departPos="61.24674271819007" departLane="free" arrivalPos="74.75736684800373"><route edges="10971766#2 10741747#0 222897513#0 222897513#4 222897513#5 54700033#0" /></vehicle><route id="86" edges="10971766#2 10741747#0 222897513#0 222897513#4 222897513#5 54700033#0" /><vehicle id="87" type="car" depart="0.0" departPos="43.17429015271492" departLane="free" arrivalPos="0.0"><route edges="311408820#5 10741747#0 222897513#0 222941080#5 972965169 10976960#2" /></vehicle><route id="87" edges="311408820#5 10741747#0 222897513#0 222941080#5 972965169 10976960#2" /><vehicle id="88" type="car" depart="0.0" departPos="37.72324081815286" departLane="free" arrivalPos="8.776208403212673"><route edges="311408820#0 311408820#5 311408820#8 23182806#0 52493441#0 52493436#0 52493436#5" /></vehicle><route id="88" edges="311408820#0 311408820#5 311408820#8 23182806#0 52493441#0 52493436#0 52493436#5" /><vehicle id="89" type="motorcycle" depart="0.0" departPos="20.1534348488932" departLane="free" arrivalPos="75.79479696262734"><route edges="52493436#0 52493436#5 52493436#8 52493436#13 260124787#0 601290888#0" /></vehicle><route id="89" edges="52493436#0 52493436#5 52493436#8 52493436#13 260124787#0 601290888#0" /><vehicle id="90" type="taxi" depart="0.0" departPos="5.239521788590614" departLane="free" arrivalPos="43.87589943064999"><route edges="52493436#0 52493436#5 52493436#8 52493436#13 260124786#0 260124786#2 168914459#0 751068056 168914458#0 299510529#0 299644700#0 299644700#2 299644700#5 299644700#7 23182837#0 23182837#2" /></vehicle><route id="90" edges="52493436#0 52493436#5 52493436#8 52493436#13 260124786#0 260124786#2 168914459#0 751068056 168914458#0 299510529#0 299644700#0 299644700#2 299644700#5 299644700#7 23182837#0 23182837#2" /><vehicle id="91" type="MediumVehicle" depart="0.0" departPos="59.13" departLane="free" arrivalPos="0.0"><route edges="52493441#0 52493436#0 52493436#5 636473899#15" /></vehicle><route id="91" edges="52493441#0 52493436#0 52493436#5 636473899#15" /><vehicle id="92" type="car" depart="0.0" departPos="46.56917978825897" departLane="free" arrivalPos="75.2207727358566"><route edges="52493441#0 52493436#0 52493436#5 52493436#8 52493436#13 260124787#0 601290888#0" /></vehicle><route id="92" edges="52493441#0 52493436#0 52493436#5 52493436#8 52493436#13 260124787#0 601290888#0" /><vehicle id="94" type="taxi" depart="0.0" departPos="0.0" departLane="free" arrivalPos="75.05179398009867"><route edges="52493441#0 52493436#0 52493436#5 52493436#8 52493436#13 260124787#0 601290888#0" /></vehicle><route id="94" edges="52493441#0 52493436#0 52493436#5 52493436#8 52493436#13 260124787#0 601290888#0" /><vehicle id="77" type="car" depart="0.0" departPos="100.36514766952081" departLane="free" arrivalPos="28.057036996090623"><route edges="50003888#0 661184019#1 390115233#0 778622871 758432182 878082498#0 400829834#0" /></vehicle><route id="77" edges="50003888#0 661184019#1 390115233#0 778622871 758432182 878082498#0 400829834#0" /><vehicle id="115" type="motorcycle" depart="0.0" departPos="18.35869873358699" departLane="free" arrivalPos="109.23065669515701"><route edges="311408820#0 311408820#5 311408820#8 168737311#0 168737311#4" /></vehicle><route id="115" edges="311408820#0 311408820#5 311408820#8 168737311#0 168737311#4" /><vehicle id="117" type="motorcycle" depart="0.0" departPos="12.611596217577551" departLane="free" arrivalPos="83.72118419364607"><route edges="311408820#0 311408820#5 311408820#8 168737311#0 168737311#4 32295709" /></vehicle><route id="117" edges="311408820#0 311408820#5 311408820#8 168737311#0 168737311#4 32295709" /><vehicle id="139" type="car" depart="0.0" departPos="5.501146337234613" departLane="free" arrivalPos="2.916924274369163"><route edges="311408820#0 311408820#5 311408820#8 168737311#0 168737311#4 32295709 207971475#0 207971475#1 284241336#0 284241336#5 52493742 52493741#0 704293239#0 299506410#0 207979572#0 207979572#0.114 23182767#0" /></vehicle><route id="139" edges="311408820#0 311408820#5 311408820#8 168737311#0 168737311#4 32295709 207971475#0 207971475#1 284241336#0 284241336#5 52493742 52493741#0 704293239#0 299506410#0 207979572#0 207979572#0.114 23182767#0" /><vehicle id="140" type="car" depart="0.0" departPos="27.187169799901735" departLane="free" arrivalPos="4.247780726891495"><route edges="311408820#8 168737311#0 168737311#4 32295709 207971475#0 207971475#1 284241336#0 284241336#5 52493742 52493741#0 704293239#0 299506410#0 207979572#0 207979572#0.114 23182767#0" /></vehicle><route id="140" edges="311408820#8 168737311#0 168737311#4 32295709 207971475#0 207971475#1 284241336#0 284241336#5 52493742 52493741#0 704293239#0 299506410#0 207979572#0 207979572#0.114 23182767#0" /><vehicle id="141" type="car" depart="0.0" departPos="15.210268957819139" departLane="free" arrivalPos="4.499717104916447"><route edges="311408820#5 311408820#8 168737311#0 168737311#4 32295709 207971475#0 207971475#1 284241336#0 284241336#5 52493742 52493741#0 704293239#0 299506410#0 207979572#0 207979572#0.114 23182767#0" /></vehicle><route id="141" edges="311408820#5 311408820#8 168737311#0 168737311#4 32295709 207971475#0 207971475#1 284241336#0 284241336#5 52493742 52493741#0 704293239#0 299506410#0 207979572#0 207979572#0.114 23182767#0" /><vehicle id="142" type="car" depart="0.0" departPos="43.13432898452128" departLane="free" arrivalPos="4.727529833581636"><route edges="311408820#5 311408820#8 168737311#0 168737311#4 32295709 207971475#0 207971475#1 284241336#0 284241336#5 52493742 52493741#0 704293239#0 299506410#0 207979572#0 207979572#0.114 23182767#0" /></vehicle><route id="142" edges="311408820#5 311408820#8 168737311#0 168737311#4 32295709 207971475#0 207971475#1 284241336#0 284241336#5 52493742 52493741#0 704293239#0 299506410#0 207979572#0 207979572#0.114 23182767#0" /><vehicle id="143" type="car" depart="0.0" departPos="0.9516178664585038" departLane="free" arrivalPos="0.0"><route edges="311408820#8 168737311#0 168737311#4 32295709 207971475#0 207971475#1 284241336#0 284241336#5 52493742 52493741#0 704293239#0 299506410#0 207979572#0 207979572#0.114 789796816#0" /></vehicle><route id="143" edges="311408820#8 168737311#0 168737311#4 32295709 207971475#0 207971475#1 284241336#0 284241336#5 52493742 52493741#0 704293239#0 299506410#0 207979572#0 207979572#0.114 789796816#0" /><vehicle id="144" type="car" depart="0.0" departPos="0.0" departLane="free" arrivalPos="4.912611015451"><route edges="311408820#8 168737311#0 168737311#4 32295709 207971475#0 207971475#1 284241336#0 284241336#5 52493742 52493741#0 704293239#0 299506410#0 207979572#0 207979572#0.114 23182767#0" /></vehicle><route id="144" edges="311408820#8 168737311#0 168737311#4 32295709 207971475#0 207971475#1 284241336#0 284241336#5 52493742 52493741#0 704293239#0 299506410#0 207979572#0 207979572#0.114 23182767#0" /><vehicle id="145" type="car" depart="0.0" departPos="13.558093968708551" departLane="free" arrivalPos="5.367124551877819"><route edges="311408820#8 168737311#0 168737311#4 32295709 207971475#0 207971475#1 284241336#0 284241336#5 52493742 52493741#0 704293239#0 299506410#0 207979572#0 207979572#0.114 23182767#0" /></vehicle><route id="145" edges="311408820#8 168737311#0 168737311#4 32295709 207971475#0 207971475#1 284241336#0 284241336#5 52493742 52493741#0 704293239#0 299506410#0 207979572#0 207979572#0.114 23182767#0" /><vehicle id="146" type="car" depart="0.0" departPos="35.76817657407937" departLane="free" arrivalPos="19.443702741104133"><route edges="311408820#8 168737311#0 168737311#4 32295709 207971475#0 207971475#1 51249283 284241337#0 636473899#6" /></vehicle><route id="146" edges="311408820#8 168737311#0 168737311#4 32295709 207971475#0 207971475#1 51249283 284241337#0 636473899#6" /><vehicle id="147" type="car" depart="0.0" departPos="99.0309143651618" departLane="free" arrivalPos="54.61900859590935"><route edges="32295798#0 168737311#0 168737311#4 32295709 207971475#0 207971475#1 284241336#0 1098886968#0" /></vehicle><route id="147" edges="32295798#0 168737311#0 168737311#4 32295709 207971475#0 207971475#1 284241336#0 1098886968#0" /><vehicle id="148" type="car" depart="0.0" departPos="41.97463177750845" departLane="free" arrivalPos="3.2286914662734847"><route edges="168737311#0 168737311#4 32295709 207971475#0 207971475#1 284241336#0 284241336#5 52493742 52493741#0 704293239#0 299506410#0 207979572#0 207979572#0.114 23182767#0" /></vehicle><route id="148" edges="168737311#0 168737311#4 32295709 207971475#0 207971475#1 284241336#0 284241336#5 52493742 52493741#0 704293239#0 299506410#0 207979572#0 207979572#0.114 23182767#0" /><vehicle id="149" type="car" depart="0.0" departPos="28.64549469670271" departLane="free" arrivalPos="12.804950001674083"><route edges="311408820#0 311408820#5 311408820#8 168737311#0 168737311#4 189063911#0 24218743 168725549#0 741087752 741087756#0" /></vehicle><route id="149" edges="311408820#0 311408820#5 311408820#8 168737311#0 168737311#4 189063911#0 24218743 168725549#0 741087752 741087756#0" /><vehicle id="150" type="car" depart="0.0" departPos="21.57615555608177" departLane="free" arrivalPos="16.391430858402945"><route edges="311408820#0 311408820#5 311408820#8 168737311#0 168737311#4 189063911#0 24218743 168725549#0 741087752 741087756#0" /></vehicle><route id="150" edges="311408820#0 311408820#5 311408820#8 168737311#0 168737311#4 189063911#0 24218743 168725549#0 741087752 741087756#0" /><vehicle id="151" type="car" depart="0.0" departPos="46.93891455924395" departLane="free" arrivalPos="4.89711933577578"><route edges="311408820#0 311408820#5 311408820#8 168737311#0 168737311#4 189063911#0 24218743 168725549#0 741087752 741087756#0" /></vehicle><route id="151" edges="311408820#0 311408820#5 311408820#8 168737311#0 168737311#4 189063911#0 24218743 168725549#0 741087752 741087756#0" /><vehicle id="152" type="car" depart="0.0" departPos="29.89757183032704" departLane="free" arrivalPos="5.090450622779574"><route edges="311408820#5 311408820#8 168737311#0 168737311#4 189063911#0 24218743 168725549#0 741087752 741087756#0" /></vehicle><route id="152" edges="311408820#5 311408820#8 168737311#0 168737311#4 189063911#0 24218743 168725549#0 741087752 741087756#0" /><vehicle id="153" type="car" depart="0.0" departPos="48.070486787632994" departLane="free" arrivalPos="17.353251558948514"><route edges="168737311#0 168737311#4 32295709" /></vehicle><route id="153" edges="168737311#0 168737311#4 32295709" /><vehicle id="138" type="car" depart="0.0" departPos="0.0" departLane="free" arrivalPos="3.200427392616302"><route edges="311408820#0 311408820#5 311408820#8 168737311#0 168737311#4 32295709 207971475#0 207971475#1 284241336#0 284241336#5 52493742 52493741#0 704293239#0 299506410#0 207979572#0 207979572#0.114 23182767#0" /></vehicle><route id="138" edges="311408820#0 311408820#5 311408820#8 168737311#0 168737311#4 32295709 207971475#0 207971475#1 284241336#0 284241336#5 52493742 52493741#0 704293239#0 299506410#0 207979572#0 207979572#0.114 23182767#0" /><vehicle id="116" type="motorcycle" depart="0.0" departPos="109.55751097442734" departLane="free" arrivalPos="83.4587937687999"><route edges="260124785#3 311408820#0 311408820#5 311408820#8 168737311#0 168737311#4 32295709" /></vehicle><route id="116" edges="260124785#3 311408820#0 311408820#5 311408820#8 168737311#0 168737311#4 32295709" /><vehicle id="137" type="car" depart="0.0" departPos="112.85" departLane="free" arrivalPos="0.2927242120364944"><route edges="260124785#3 311408820#0 311408820#5 311408820#8 168737311#0 168737311#4 32295709 207971475#0 207971475#1 284241336#0 284241336#5 52493742 52493741#0 704293239#0 299506410#0 207979572#0 207979572#0.114 789796816#0" /></vehicle><route id="137" edges="260124785#3 311408820#0 311408820#5 311408820#8 168737311#0 168737311#4 32295709 207971475#0 207971475#1 284241336#0 284241336#5 52493742 52493741#0 704293239#0 299506410#0 207979572#0 207979572#0.114 789796816#0" /><vehicle id="135" type="car" depart="0.0" departPos="81.64138461728572" departLane="free" arrivalPos="49.49790354903314"><route edges="260124785#3 311408820#0 311408820#5 311408820#8 168737311#0 168737311#4 32295709 207971475#0 207971475#1 284241336#0 284241336#5 52493742 52493741#0" /></vehicle><route id="135" edges="260124785#3 311408820#0 311408820#5 311408820#8 168737311#0 168737311#4 32295709 207971475#0 207971475#1 284241336#0 284241336#5 52493742 52493741#0" /><vehicle id="118" type="motorcycle" depart="0.0" departPos="34.283687126287234" departLane="free" arrivalPos="73.81908361234784"><route edges="311408820#5 311408820#8 168737311#0 168737311#4" /></vehicle><route id="118" edges="311408820#5 311408820#8 168737311#0 168737311#4" /><vehicle id="119" type="motorcycle" depart="0.0" departPos="32.63578555411331" departLane="free" arrivalPos="3.538424853846729"><route edges="311408820#8 168737311#0 168737311#4 32295709 207971475#0 207971475#1 284241336#0 284241336#5 52493742 52493741#0 704293239#0 299506410#0 207979572#0 207979572#0.114 23182767#0" /></vehicle><route id="119" edges="311408820#8 168737311#0 168737311#4 32295709 207971475#0 207971475#1 284241336#0 284241336#5 52493742 52493741#0 704293239#0 299506410#0 207979572#0 207979572#0.114 23182767#0" /><vehicle id="120" type="motorcycle" depart="0.0" departPos="6.047167781261518" departLane="free" arrivalPos="12.74014444782774"><route edges="311408820#8 168737311#0 168737311#4 189063911#0 24218743 168725549#0 741087752 741087756#0" /></vehicle><route id="120" edges="311408820#8 168737311#0 168737311#4 189063911#0 24218743 168725549#0 741087752 741087756#0" /><vehicle id="121" type="motorcycle" depart="0.0" departPos="20.84858892555847" departLane="free" arrivalPos="11.631053866141903"><route edges="311408820#8 168737311#0 168737311#4 189063911#0 24218743 168725549#0 741087752 286070634#0 286070634#4" /></vehicle><route id="121" edges="311408820#8 168737311#0 168737311#4 189063911#0 24218743 168725549#0 741087752 286070634#0 286070634#4" /><vehicle id="122" type="motorcycle" depart="0.0" departPos="22.800101062189825" departLane="free" arrivalPos="9.005367320639854"><route edges="311408820#8 168737311#0 168737311#4 189063911#0 24218743 168725549#0 741087752 741087756#0" /></vehicle><route id="122" edges="311408820#8 168737311#0 168737311#4 189063911#0 24218743 168725549#0 741087752 741087756#0" /><vehicle id="123" type="taxi" depart="0.0" departPos="5.735710660467572" departLane="free" arrivalPos="0.0"><route edges="168737311#0 32357772#5 762514801#3 741733384#0 260824573#0 260824573#3 189099793#0 168725561#0 168725561#3 168725561#4 207971472#0 243850913#0 31985292#0" /></vehicle><route id="123" edges="168737311#0 32357772#5 762514801#3 741733384#0 260824573#0 260824573#3 189099793#0 168725561#0 168725561#3 168725561#4 207971472#0 243850913#0 31985292#0" /><vehicle id="125" type="motorcycle" depart="0.0" departPos="54.670169039771395" departLane="free" arrivalPos="54.61900859590935"><route edges="168914460 704293238#0 23183369#0 1098886968#0" /></vehicle><route id="125" edges="168914460 704293238#0 23183369#0 1098886968#0" /><vehicle id="126" type="taxi" depart="0.0" departPos="48.23" departLane="free" arrivalPos="65.42828306627041"><route edges="311408820#5 311408820#8 168737311#0 168737311#4 189063911#0 24218743 977757273 762514801#0 762514801#3 741733384#0 260824573#0 260824573#3 189099793#0 168725561#0 168725561#3 168725561#4 207971472#0 243850913#0" /></vehicle><route id="126" edges="311408820#5 311408820#8 168737311#0 168737311#4 189063911#0 24218743 977757273 762514801#0 762514801#3 741733384#0 260824573#0 260824573#3 189099793#0 168725561#0 168725561#3 168725561#4 207971472#0 243850913#0" /><vehicle id="127" type="car" depart="0.0" departPos="27.296880484565865" departLane="free" arrivalPos="7.350202367863455"><route edges="260124785#3 311408820#0 311408820#5 311408820#8 168737311#0 168737311#4 32295709 207971475#0 636473899#0" /></vehicle><route id="127" edges="260124785#3 311408820#0 311408820#5 311408820#8 168737311#0 168737311#4 32295709 207971475#0 636473899#0" /><vehicle id="128" type="taxi" depart="0.0" departPos="63.47036586635688" departLane="free" arrivalPos="0.0"><route edges="260124785#3 311408820#0 311408820#5 311408820#8 168737311#0 168737311#4 32295709 207971475#0 207971475#1 284241336#0 284241336#5 52493742 52493741#0 704293239#0 299506410#0 207979572#0 207979572#0.114 789796816#0" /></vehicle><route id="128" edges="260124785#3 311408820#0 311408820#5 311408820#8 168737311#0 168737311#4 32295709 207971475#0 207971475#1 284241336#0 284241336#5 52493742 52493741#0 704293239#0 299506410#0 207979572#0 207979572#0.114 789796816#0" /><vehicle id="129" type="taxi" depart="0.0" departPos="71.12586843305121" departLane="free" arrivalPos="47.638348505293806"><route edges="260124785#3 311408820#0 311408820#5 311408820#8 168737311#0 168737311#4 32295709 207971475#0 207971475#1 284241336#0 284241336#5 52493742 52493741#0" /></vehicle><route id="129" edges="260124785#3 311408820#0 311408820#5 311408820#8 168737311#0 168737311#4 32295709 207971475#0 207971475#1 284241336#0 284241336#5 52493742 52493741#0" /><vehicle id="130" type="car" depart="0.0" departPos="7.761944497855667" departLane="free" arrivalPos="6.210183726763864"><route edges="168737311#4 32295709 207971475#0 207971475#1 284241336#0 284241336#5 52493742 52493741#0 704293239#0 299506410#0 207979572#0 207979572#0.114 23182767#0" /></vehicle><route id="130" edges="168737311#4 32295709 207971475#0 207971475#1 284241336#0 284241336#5 52493742 52493741#0 704293239#0 299506410#0 207979572#0 207979572#0.114 23182767#0" /><vehicle id="131" type="car" depart="0.0" departPos="4.540471587063606" departLane="free" arrivalPos="3.259444351851748"><route edges="168737311#4 32295709 207971475#0 207971475#1 284241336#0 284241336#5 52493742 52493741#0 704293239#0 299506410#0 207979572#0 207979572#0.114 23182767#0" /></vehicle><route id="131" edges="168737311#4 32295709 207971475#0 207971475#1 284241336#0 284241336#5 52493742 52493741#0 704293239#0 299506410#0 207979572#0 207979572#0.114 23182767#0" /><vehicle id="132" type="car" depart="0.0" departPos="22.512170775100028" departLane="free" arrivalPos="46.02171793003149"><route edges="168737311#4 32295709 207971475#0 207971475#1 284241336#0 284241336#5 52493742 52493741#0" /></vehicle><route id="132" edges="168737311#4 32295709 207971475#0 207971475#1 284241336#0 284241336#5 52493742 52493741#0" /><v