<routes xmlns:xsi="http://www.w3.org/2001/XMLSchema-instance" xsi:noNamespaceSchemaLocation="http://sumo.dlr.de/xsd/routes_file.xsd">
<vehicle id="1" type="motorcycle" depart="0.0" departPos="100.63012613184723" departLane="free" arrivalPos="2.5472459660594557"><route edges="168725549#0 741087752 286070634#0 286070634#4" /></vehicle><route id="1" edges="168725549#0 741087752 286070634#0 286070634#4" /><vehicle id="982" type="bus" depart="0.0" departPos="148.3352218679254" departLane="free" arrivalPos="75.22981548397735"><route edges="311453391#0 168725546#0 243850915#0 243850915#1 41806625#0 400829834#0 163711426#0 163711426#2 878082499#0 249697226#0 249697226#1 295083400#0" /></vehicle><route id="982" edges="311453391#0 168725546#0 243850915#0 243850915#1 41806625#0 400829834#0 163711426#0 163711426#2 878082499#0 249697226#0 249697226#1 295083400#0" /><vehicle id="980" type="car" depart="0.0" departPos="28.042106767523784" departLane="free" arrivalPos="6.406505719485503"><route edges="52493439#0 52493439#0.58" /></vehicle><route id="980" edges="52493439#0 52493439#0.58" /><vehicle id="979" type="car" depart="0.0" departPos="27.549582288050747" departLane="free" arrivalPos="29.40524149642395"><route edges="52493441#0 52493436#0 52493436#5" /></vehicle><route id="979" edges="52493441#0 52493436#0 52493436#5" /><vehicle id="978" type="car" depart="0.0" departPos="5.819244290204956" departLane="free" arrivalPos="26.32184075587519"><route edges="52493439#0" /></vehicle><route id="978" edges="52493439#0" /><vehicle id="977" type="bus" depart="0.0" departPos="66.37890418096964" departLane="free" arrivalPos="19.018096827498393"><route edges="299514252#16 259803254#0 168914460 704293238#0 207891571#0 168904430 284241337#0 1101347640#0 189063911#0 24218743 977757273 762514801#0 762514801#3 741733384#0" /></vehicle><route id="977" edges="299514252#16 259803254#0 168914460 704293238#0 207891571#0 168904430 284241337#0 1101347640#0 189063911#0 24218743 977757273 762514801#0 762514801#3 741733384#0" /><vehicle id="976" type="bus" depart="0.0" departPos="34.958700044176005" departLane="free" arrivalPos="39.28"><route edges="167920360#0 167920360#1 23182965#0 207979569#0 207979569#3 168914464#0 167907746#0 704293238#0 207891571#0 168904430 284241337#0 1101347640#0 189063911#0 24218743 977757273 762514801#0 762514801#3 741733384#0 260824573#0 260824573#3 189099792#0 E4 10741751#0 189099791#0" /></vehicle><route id="976" edges="167920360#0 167920360#1 23182965#0 207979569#0 207979569#3 168914464#0 167907746#0 704293238#0 207891571#0 168904430 284241337#0 1101347640#0 189063911#0 24218743 977757273 762514801#0 762514801#3 741733384#0 260824573#0 260824573#3 189099792#0 E4 10741751#0 189099791#0" /><vehicle id="975" type="taxi" depart="0.0" departPos="0.0" departLane="free" arrivalPos="39.28"><route edges="260124786#0 260124786#2 168914460 704293238#0 207891571#0 168904430 284241337#0 1101347640#0 189063911#0 24218743 977757273 762514801#0 762514801#3 741733384#0 260824573#0 260824573#3 189099792#0 E4 10741751#0 189099791#0" /></vehicle><route id="975" edges="260124786#0 260124786#2 168914460 704293238#0 207891571#0 168904430 284241337#0 1101347640#0 189063911#0 24218743 977757273 762514801#0 762514801#3 741733384#0 260824573#0 260824573#3 189099792#0 E4 10741751#0 189099791#0" /><vehicle id="974" type="bus" depart="0.0" departPos="35.43634946858365" departLane="free" arrivalPos="39.28"><route edges="260124786#2 168914460 704293238#0 207891571#0 168904430 284241337#0 1101347640#0 189063911#0 24218743 977757273 762514801#0 762514801#3 741733384#0 260824573#0 260824573#3 189099792#0 E4 10741751#0 189099791#0" /></vehicle><route id="974" edges="260124786#2 168914460 704293238#0 207891571#0 168904430 284241337#0 1101347640#0 189063911#0 24218743 977757273 762514801#0 762514801#3 741733384#0 260824573#0 260824573#3 189099792#0 E4 10741751#0 189099791#0" /><vehicle id="983" type="motorcycle" depart="0.0" departPos="93.8043638923311" departLane="free" arrivalPos="75.89983944218096"><route edges="207971472#0 243850915#0 243850915#1 41806625#0 400829834#0 163711426#0 163711426#2 878082499#0 249697226#0 249697226#1 295083400#0" /></vehicle><route id="983" edges="207971472#0 243850915#0 243850915#1 41806625#0 400829834#0 163711426#0 163711426#2 878082499#0 249697226#0 249697226#1 295083400#0" /><vehicle id="973" type="motorcycle" depart="0.0" departPos="60.14427737621984" departLane="free" arrivalPos="4.017365430229165"><route edges="23182965#0 207979569#0 207979569#3 168914464#0 167907746#0 704293238#0 207891571#0 168904430 284241337#0 1101347640#0 189063911#0 24218743 977757273 762514801#0 762514801#3 741733384#0 260824573#0 260824573#3 189099793#0 168725561#0 168725561#3 168725561#4 207971478#0 207971478#1 222941079#0 222941079#3 222941079#4" /></vehicle><route id="973" edges="23182965#0 207979569#0 207979569#3 168914464#0 167907746#0 704293238#0 207891571#0 168904430 284241337#0 1101347640#0 189063911#0 24218743 977757273 762514801#0 762514801#3 741733384#0 260824573#0 260824573#3 189099793#0 168725561#0 168725561#3 168725561#4 207971478#0 207971478#1 222941079#0 222941079#3 222941079#4" /><vehicle id="971" type="motorcycle" depart="0.0" departPos="55.53051651176959" departLane="free" arrivalPos="5.370590782803868"><route edges="1101347640#0 189063911#0 24218743 977757273 762514801#0 762514801#3 741733384#0 260824573#0 260824573#3 189099792#0" /></vehicle><route id="971" edges="1101347640#0 189063911#0 24218743 977757273 762514801#0 762514801#3 741733384#0 260824573#0 260824573#3 189099792#0" /><vehicle id="970" type="car" depart="0.0" departPos="18.35163536917635" departLane="free" arrivalPos="66.30018415948122"><route edges="260124786#2 168914460 704293238#0 207891571#0 168904430 284241337#0 1101347640#0 189063911#0 24218743 977757273 762514801#0 32357772#9" /></vehicle><route id="970" edges="260124786#2 168914460 704293238#0 207891571#0 168904430 284241337#0 1101347640#0 189063911#0 24218743 977757273 762514801#0 32357772#9" /><vehicle id="968" type="bus" depart="0.0" departPos="22.753946800902707" departLane="free" arrivalPos="65.42828306627041"><route edges="167920360#1 23182965#0 207979569#0 207979569#3 168914464#0 167907746#0 704293238#0 207891571#0 168904430 284241337#0 1101347640#0 -168737311#12 -168737311#3 -311408820#10 -311408820#7 -311408820#4 311453391#0 168725546#0 243850913#0" /></vehicle><route id="968" edges="167920360#1 23182965#0 207979569#0 207979569#3 168914464#0 167907746#0 704293238#0 207891571#0 168904430 284241337#0 1101347640#0 -168737311#12 -168737311#3 -311408820#10 -311408820#7 -311408820#4 311453391#0 168725546#0 243850913#0" /><vehicle id="967" type="bus" depart="0.0" departPos="47.07324962435389" departLane="free" arrivalPos="42.175466933249496"><route edges="168914464#0 167907746#0 704293238#0 207891571#0 168904430 284241337#0 1101347640#0 -168737311#12 -168737311#3 -311408820#10 -311408820#7 -311408820#4 311453391#0 168725546#0 243850915#0 243850915#1 163711428#0 878082497 163711429#0 390115243#0" /></vehicle><route id="967" edges="168914464#0 167907746#0 704293238#0 207891571#0 168904430 284241337#0 1101347640#0 -168737311#12 -168737311#3 -311408820#10 -311408820#7 -311408820#4 311453391#0 168725546#0 243850915#0 243850915#1 163711428#0 878082497 163711429#0 390115243#0" /><vehicle id="966" type="car" depart="0.0" departPos="28.881437285671414" departLane="free" arrivalPos="44.93"><route edges="23183808#0 207979569#0 299510530#4 299506410#0 23183808#0 207979566#0 23182796#0 23182796#3" /></vehicle><route id="966" edges="23183808#0 207979569#0 299510530#4 299506410#0 23183808#0 207979566#0 23182796#0 23182796#3" /><vehicle id="964" type="taxi" depart="0.0" departPos="16.98946090872671" departLane="free" arrivalPos="67.59"><route edges="167920360#1 23182965#0 207979569#0 207979569#3 168914464#0 167907746#0 704293238#0 207891571#0 168904430 284241337#0 1101347640#0 189063911#0 24218743" /></vehicle><route id="964" edges="167920360#1 23182965#0 207979569#0 207979569#3 168914464#0 167907746#0 704293238#0 207891571#0 168904430 284241337#0 1101347640#0 189063911#0 24218743" /><vehicle id="963" type="bus" depart="0.0" departPos="49.8530297778147" departLane="free" arrivalPos="5.2007498571819974"><route edges="259803254#0 168914460 704293238#0 207891571#0 168904430 284241337#0 1101347640#0 32295709 207971475#0 207971475#1 284241336#0 284241336#5 52493742 52493741#0 704293239#0 299506410#0 207979572#0 207979572#0.114 23182767#0" /></vehicle><route id="963" edges="259803254#0 168914460 704293238#0 207891571#0 168904430 284241337#0 1101347640#0 32295709 207971475#0 207971475#1 284241336#0 284241336#5 52493742 52493741#0 704293239#0 299506410#0 207979572#0 207979572#0.114 23182767#0" /><vehicle id="961" type="taxi" depart="0.0" departPos="55.09702678128957" departLane="free" arrivalPos="0.21560348013182806"><route edges="10741760#2 222899032#0 222899032#1 284503674#0 972965170#0 32245113#0 32295798#0 168737311#0 168737311#4 32295709 207971475#0 207971475#1 284241336#0 284241336#5 52493742 52493741#0 704293239#0 299506410#0 207979572#0 207979572#0.114 23182767#0" /></vehicle><route id="961" edges="10741760#2 222899032#0 222899032#1 284503674#0 972965170#0 32245113#0 32295798#0 168737311#0 168737311#4 32295709 207971475#0 207971475#1 284241336#0 284241336#5 52493742 52493741#0 704293239#0 299506410#0 207979572#0 207979572#0.114 23182767#0" /><vehicle id="972" type="motorcycle" depart="0.0" departPos="60.81940826715172" departLane="free" arrivalPos="16.951153741272154"><route edges="207971475#1 51249283 284241337#0 1101347640#0 189063911#0 24218743 977757273 762514801#0 762514801#3 741733384#0 260824573#0 260824573#3 189099793#0 168725561#0 168725561#3 168725561#4 207971478#0 207971478#1 222941079#0" /></vehicle><route id="972" edges="207971475#1 51249283 284241337#0 1101347640#0 189063911#0 24218743 977757273 762514801#0 762514801#3 741733384#0 260824573#0 260824573#3 189099793#0 168725561#0 168725561#3 168725561#4 207971478#0 207971478#1 222941079#0" /><vehicle id="960" type="taxi" depart="0.0" departPos="100.92734451809767" departLane="free" arrivalPos="0.0"><route edges="775601984#2 207979571#0 299888950 299888949#0 1050850176#0 163711425#0 878082496 778622871 758432181 259806440#0 249412140#0 260124785#0 260124785#3 311408820#0 311408820#5 311408820#8 168737311#0 168737311#4 32295709 207971475#0 207971475#1 284241336#0 284241336#5 52493742 52493741#0 23183271#0" /></vehicle><route id="960" edges="775601984#2 207979571#0 299888950 299888949#0 1050850176#0 163711425#0 878082496 778622871 758432181 259806440#0 249412140#0 260124785#0 260124785#3 311408820#0 311408820#5 311408820#8 168737311#0 168737311#4 32295709 207971475#0 207971475#1 284241336#0 284241336#5 52493742 52493741#0 23183271#0" /><vehicle id="984" type="motorcycle" depart="0.0" departPos="98.00728557102276" departLane="free" arrivalPos="75.66479215860599"><route edges="207971472#0 243850915#0 243850915#1 41806625#0 400829834#0 163711426#0 163711426#2 878082499#0 249697226#0 249697226#1 295083400#0" /></vehicle><route id="984" edges="207971472#0 243850915#0 243850915#1 41806625#0 400829834#0 163711426#0 163711426#2 878082499#0 249697226#0 249697226#1 295083400#0" /><vehicle id="987" type="motorcycle" depart="0.0" departPos="79.23" departLane="free" arrivalPos="59.62"><route edges="295083398#0 168725546#0 243850915#0 243850915#1 41806625#0 400829834#0 82619469#0 996823386 299888948#0" /></vehicle><route id="987" edges="295083398#0 168725546#0 243850915#0 243850915#1 41806625#0 400829834#0 82619469#0 996823386 299888948#0" /><vehicle id="1005" type="taxi" depart="0.0" departPos="0.0" departLane="free" arrivalPos="31.87048788443488"><route edges="207979566#0 23182796#0 23182796#3 23182796#5" /></vehicle><route id="1005" edges="207979566#0 23182796#0 23182796#3 23182796#5" /><vehicle id="1004" type="car" depart="0.0" departPos="0.0" departLane="free" arrivalPos="32.0783749611257"><route edges="207979566#0 23182796#0 23182796#3 23182796#5" /></vehicle><route id="1004" edges="207979566#0 23182796#0 23182796#3 23182796#5" /><vehicle id="1003" type="taxi" depart="0.0" departPos="103.90605612763868" departLane="free" arrivalPos="2.533910126094801"><route edges="23182965#0 207979566#0 299644700#0 299644700#2 299644700#5 299644700#7 299644700#8 298828555#0" /></vehicle><route id="1003" edges="23182965#0 207979566#0 299644700#0 299644700#2 299644700#5 299644700#7 299644700#8 298828555#0" /><vehicle id="1002" type="motorcycle" depart="0.0" departPos="0.0" departLane="free" arrivalPos="30.97921147491936"><route edges="207979566#0 23182796#0 23182796#3 23182796#5" /></vehicle><route id="1002" edges="207979566#0 23182796#0 23182796#3 23182796#5" /><vehicle id="1001" type="motorcycle" depart="0.0" departPos="0.0" departLane="free" arrivalPos="7.9654302543570905"><route edges="299506410#0 23183808#0 207979566#0 299644700#0 299644700#2 299644700#5 299644700#7 299644700#8 23182848#0" /></vehicle><route id="1001" edges="299506410#0 23183808#0 207979566#0 299644700#0 299644700#2 299644700#5 299644700#7 299644700#8 23182848#0" /><vehicle id="1000" type="car" depart="0.0" departPos="60.3882082932372" departLane="free" arrivalPos="74.30537957502656"><route edges="207971472#0 243850915#0 243850915#1 41806625#0 400829834#0 163711426#0 163711426#2 878082499#0 249697226#0 249697226#1 295083400#0" /></vehicle><route id="1000" edges="207971472#0 243850915#0 243850915#1 41806625#0 400829834#0 163711426#0 163711426#2 878082499#0 249697226#0 249697226#1 295083400#0" /><vehicle id="999" type="car" depart="0.0" departPos="62.712828467663606" departLane="free" arrivalPos="74.60710927249974"><route edges="295083398#0 168725546#0 243850915#0 243850915#1 41806625#0 400829834#0 163711426#0 163711426#2 878082499#0 249697226#0 249697226#1 295083400#0" /></vehicle><route id="999" edges="295083398#0 168725546#0 243850915#0 243850915#1 41806625#0 400829834#0 163711426#0 163711426#2 878082499#0 249697226#0 249697226#1 295083400#0" /><vehicle id="998" type="car" depart="0.0" departPos="79.71917535728308" departLane="free" arrivalPos="44.93"><route edges="23182965#0 207979566#0 23182796#0 23182796#3" /></vehicle><route id="998" edges="23182965#0 207979566#0 23182796#0 23182796#3" /><vehicle id="985" type="motorcycle" depart="0.0" departPos="98.00728557102276" departLane="free" arrivalPos="75.6197726529113"><route edges="207971472#0 243850915#0 243850915#1 41806625#0 400829834#0 163711426#0 163711426#2 878082499#0 249697226#0 249697226#1 295083400#0" /></vehicle><route id="985" edges="207971472#0 243850915#0 243850915#1 41806625#0 400829834#0 163711426#0 163711426#2 878082499#0 249697226#0 249697226#1 295083400#0" /><vehicle id="997" type="MediumVehicle" depart="0.0" departPos="30.25678728436989" departLane="free" arrivalPos="0.3869722957961685"><route edges="23182965#0 207979566#0 299644700#0 299644700#2 299644700#5 299644700#7 299644700#8 298828555#0" /></vehicle><route id="997" edges="23182965#0 207979566#0 299644700#0 299644700#2 299644700#5 299644700#7 299644700#8 298828555#0" /><vehicle id="995" type="taxi" depart="0.0" departPos="65.39783230268112" departLane="free" arrivalPos="44.93"><route edges="704293239#0 299506410#0 23183808#0 207979566#0 23182796#0 23182796#3" /></vehicle><route id="995" edges="704293239#0 299506410#0 23183808#0 207979566#0 23182796#0 23182796#3" /><vehicle id="994" type="car" depart="0.0" departPos="0.0" departLane="free" arrivalPos="2.7851693420773063"><route edges="704293239#0 299506410#0 23183808#0 207979566#0 299644700#0 299644700#2 299644700#5 299644700#7 299644700#8 23182848#0" /></vehicle><route id="994" edges="704293239#0 299506410#0 23183808#0 207979566#0 299644700#0 299644700#2 299644700#5 299644700#7 299644700#8 23182848#0" /><vehicle id="993" type="taxi" depart="0.0" departPos="58.26376321692308" departLane="free" arrivalPos="31.203772413005833"><route edges="219362015#4 23183808#0 207979566#0 23182796#0 23182796#3 23182796#5" /></vehicle><route id="993" edges="219362015#4 23183808#0 207979566#0 23182796#0 23182796#3 23182796#5" /><vehicle id="992" type="car" depart="0.0" departPos="74.9067685999467" departLane="free" arrivalPos="74.47777806746798"><route edges="295083398#0 168725546#0 243850915#0 243850915#1 41806625#0 400829834#0 163711426#0 163711426#2 878082499#0 249697226#0 249697226#1 295083400#0" /></vehicle><route id="992" edges="295083398#0 168725546#0 243850915#0 243850915#1 41806625#0 400829834#0 163711426#0 163711426#2 878082499#0 249697226#0 249697226#1 295083400#0" /><vehicle id="991" type="car" depart="0.0" departPos="55.622059128359226" departLane="free" arrivalPos="75.12578809394216"><route edges="295083398#0 168725546#0 243850915#0 243850915#1 41806625#0 400829834#0 163711426#0 163711426#2 878082499#0 249697226#0 249697226#1 295083400#0" /></vehicle><route id="991" edges="295083398#0 168725546#0 243850915#0 243850915#1 41806625#0 400829834#0 163711426#0 163711426#2 878082499#0 249697226#0 249697226#1 295083400#0" /><vehicle id="990" type="motorcycle" depart="0.0" departPos="29.802909193582817" departLane="free" arrivalPos="0.0"><route edges="219362015#4 23183808#0 207979566#0 299644700#0 299644700#2 299644700#5 299644700#7 299644700#8 298828555#0" /></vehicle><route id="990" edges="219362015#4 23183808#0 207979566#0 299644700#0 299644700#2 299644700#5 299644700#7 299644700#8 298828555#0" /><vehicle id="989" type="motorcycle" depart="0.0" departPos="79.23" departLane="free" arrivalPos="75.44730948590666"><route edges="295083398#0 168725546#0 243850915#0 243850915#1 41806625#0 400829834#0 163711426#0 163711426#2 878082499#0 249697226#0 249697226#1 295083400#0" /></vehicle><route id="989" edges="295083398#0 168725546#0 243850915#0 243850915#1 41806625#0 400829834#0 163711426#0 163711426#2 878082499#0 249697226#0 249697226#1 295083400#0" /><vehicle id="988" type="motorcycle" depart="0.0" departPos="79.23" departLane="free" arrivalPos="74.5832554414945"><route edges="295083398#0 168725546#0 243850915#0 243850915#1 41806625#0 400829834#0 163711426#0 163711426#2 878082499#0 249697226#0 249697226#1 295083400#0" /></vehicle><route id="988" edges="295083398#0 168725546#0 243850915#0 243850915#1 41806625#0 400829834#0 163711426#0 163711426#2 878082499#0 249697226#0 249697226#1 295083400#0" /><vehicle id="996" type="taxi" depart="0.0" departPos="78.68359607139016" departLane="free" arrivalPos="3.8178613622989532"><route edges="295083398#0 168725546#0 243850915#0 243850915#1 41806625#0 400829834#0 163711426#0 163711426#2 878082499#0 249697226#0 249697226#1 10971782#0" /></vehicle><route id="996" edges="295083398#0 168725546#0 243850915#0 243850915#1 41806625#0 400829834#0 163711426#0 163711426#2 878082499#0 249697226#0 249697226#1 10971782#0" /><vehicle id="959" type="car" depart="0.0" departPos="42.22737248954404" departLane="free" arrivalPos="0.6922289405056726"><route edges="222899032#0 222899032#1 284503674#0 972965170#0 32245113#0 32295798#0 168737311#0 168737311#4 32295709 207971475#0 207971475#1 284241336#0 284241336#5 52493742 52493741#0 704293239#0 299506410#0 207979572#0 207979572#0.114 23182767#0" /></vehicle><route id="959" edges="222899032#0 222899032#1 284503674#0 972965170#0 32245113#0 32295798#0 168737311#0 168737311#4 32295709 207971475#0 207971475#1 284241336#0 284241336#5 52493742 52493741#0 704293239#0 299506410#0 207979572#0 207979572#0.114 23182767#0" /><vehicle id="958" type="bus" depart="0.0" departPos="48.74721942800426" departLane="free" arrivalPos="3.2357158498869096"><route edges="207979571#0 299888950 299888949#0 1050850176#0 163711425#0 878082496 778622871 758432181 259806440#0 249412140#0 260124785#0 260124785#3 311408820#0 311408820#5 311408820#8 168737311#0 168737311#4 32295709 207971475#0 207971475#1 284241336#0 284241336#5 52493742 52493741#0 704293239#0 299506410#0 207979572#0 207979572#0.114 23182767#0" /></vehicle><route id="958" edges="207979571#0 299888950 299888949#0 1050850176#0 163711425#0 878082496 778622871 758432181 259806440#0 249412140#0 260124785#0 260124785#3 311408820#0 311408820#5 311408820#8 168737311#0 168737311#4 32295709 207971475#0 207971475#1 284241336#0 284241336#5 52493742 52493741#0 704293239#0 299506410#0 207979572#0 207979572#0.114 23182767#0" /><vehicle id="957" type="taxi" depart="0.0" departPos="30.983215903882446" departLane="free" arrivalPos="2.8810378986493035"><route edges="299888949#0 1050850176#0 163711425#0 878082496 778622871 758432181 259806440#0 249412140#0 260124785#0 260124785#3 311408820#0 311408820#5 311408820#8 168737311#0 168737311#4 32295709 207971475#0 207971475#1 284241336#0 284241336#5 52493742 52493741#0 704293239#0 299506410#0 207979572#0 207979572#0.114 23182767#0" /></vehicle><route id="957" edges="299888949#0 1050850176#0 163711425#0 878082496 778622871 758432181 259806440#0 249412140#0 260124785#0 260124785#3 311408820#0 311408820#5 311408820#8 168737311#0 168737311#4 32295709 207971475#0 207971475#1 284241336#0 284241336#5 52493742 52493741#0 704293239#0 299506410#0 207979572#0 207979572#0.114 23182767#0" /><vehicle id="930" type="car" depart="0.0" departPos="35.60911145324297" departLane="free" arrivalPos="59.62"><route edges="10976435#7 261671453 82682796 384593007 261671454#0 887747034 887747035#0 384593010#2 384593010#2.57 168725548#0 295083398#0 168725546#0 243850915#0 243850915#1 41806625#0 400829834#0 82619469#0 996823386 299888948#0" /></vehicle><route id="930" edges="10976435#7 261671453 82682796 384593007 261671454#0 887747034 887747035#0 384593010#2 384593010#2.57 168725548#0 295083398#0 168725546#0 243850915#0 243850915#1 41806625#0 400829834#0 82619469#0 996823386 299888948#0" /><vehicle id="929" type="car" depart="0.0" departPos="5.394005932514379" departLane="free" arrivalPos="73.46653069153123"><route edges="24259066#3 10976435#7 261671453 82682796 384593007 261671454#0 887747034 887747035#0 384593010#2 384593010#2.57 168725548#0 295083398#0 168725546#0 243850915#0 243850915#1 41806625#0 400829834#0 163711426#0 163711426#2 878082499#0 249697226#0 249697226#1 295083400#0" /></vehicle><route id="929" edges="24259066#3 10976435#7 261671453 82682796 384593007 261671454#0 887747034 887747035#0 384593010#2 384593010#2.57 168725548#0 295083398#0 168725546#0 243850915#0 243850915#1 41806625#0 400829834#0 163711426#0 163711426#2 878082499#0 249697226#0 249697226#1 295083400#0" /><vehicle id="928" type="car" depart="0.0" departPos="6.832307105005921" departLane="free" arrivalPos="65.42828306627041"><route edges="10976435#7 261671453 82682796 384593007 261671454#0 887747034 887747035#0 384593010#2 384593010#2.57 168725548#0 295083398#0 168725546#0 243850913#0" /></vehicle><route id="928" edges="10976435#7 261671453 82682796 384593007 261671454#0 887747034 887747035#0 384593010#2 384593010#2.57 168725548#0 295083398#0 168725546#0 243850913#0" /><vehicle id="927" type="MediumVehicle" depart="0.0" departPos="42.95" departLane="free" arrivalPos="73.91906361416403"><route edges="10976435#7 261671453 82682796 384593007 261671454#0 887747034 887747035#0 384593010#2 384593010#2.57 168725548#0 295083398#0 168725546#0 243850915#0 243850915#1 41806625#0 400829834#0 163711426#0 163711426#2 878082499#0 249697226#0 249697226#1 295083400#0" /></vehicle><route id="927" edges="10976435#7 261671453 82682796 384593007 261671454#0 887747034 887747035#0 384593010#2 384593010#2.57 168725548#0 295083398#0 168725546#0 243850915#0 243850915#1 41806625#0 400829834#0 163711426#0 163711426#2 878082499#0 249697226#0 249697226#1 295083400#0" /><vehicle id="926" type="car" depart="0.0" departPos="25.408089539335336" departLane="free" arrivalPos="79.23"><route edges="10976435#7 261671453 82682796 384593007 261671454#0 887747034 887747035#0 384593010#2 384593010#2.57 168725548#0 295083398#0" /></vehicle><route id="926" edges="10976435#7 261671453 82682796 384593007 261671454#0 887747034 887747035#0 384593010#2 384593010#2.57 168725548#0 295083398#0" /><vehicle id="924" type="motorcycle" depart="0.0" departPos="14.863428275263562" departLane="free" arrivalPos="2.760802757039794"><route edges="260124785#0 260124785#3 311408820#0 311408820#5 311408820#8 168737311#0 168737311#4 32295709 207971475#0 207971475#1 284241336#0 284241336#5 52493742 52493741#0 704293239#0 299506410#0 207979572#0 207979572#0.114 23182767#0" /></vehicle><route id="924" edges="260124785#0 260124785#3 311408820#0 311408820#5 311408820#8 168737311#0 168737311#4 32295709 207971475#0 207971475#1 284241336#0 284241336#5 52493742 52493741#0 704293239#0 299506410#0 207979572#0 207979572#0.114 23182767#0" /><vehicle id="923" type="car" depart="0.0" departPos="0.0" departLane="free" arrivalPos="4.385252846575337"><route edges="222899032#1 261671454#0 887747034 887747035#0 384593010#2 384593010#2.57 168725561#0 295083399#3" /></vehicle><route id="923" edges="222899032#1 261671454#0 887747034 887747035#0 384593010#2 384593010#2.57 168725561#0 295083399#3" /><vehicle id="922" type="car" depart="0.0" departPos="19.8280004034699" departLane="free" arrivalPos="65.42828306627041"><route edges="261671453 82682796 384593007 261671454#0 887747034 887747035#0 384593010#2 384593010#2.57 168725548#0 295083398#0 168725546#0 243850913#0" /></vehicle><route id="922" edges="261671453 82682796 384593007 261671454#0 887747034 887747035#0 384593010#2 384593010#2.57 168725548#0 295083398#0 168725546#0 243850913#0" /><vehicle id="931" type="car" depart="0.0" departPos="19.8280004034699" departLane="free" arrivalPos="73.03392448306963"><route edges="261671453 82682796 384593007 261671454#0 887747034 887747035#0 384593010#2 384593010#2.57 168725548#0 295083398#0 168725546#0 243850915#0 243850915#1 163711428#0 878082498#0 400829834#0 163711426#0 163711426#2 878082499#0 249697226#0 249697226#1 295083400#0" /></vehicle><route id="931" edges="261671453 82682796 384593007 261671454#0 887747034 887747035#0 384593010#2 384593010#2.57 168725548#0 295083398#0 168725546#0 243850915#0 243850915#1 163711428#0 878082498#0 400829834#0 163711426#0 163711426#2 878082499#0 249697226#0 249697226#1 295083400#0" /><vehicle id="921" type="car" depart="0.0" departPos="0.0" departLane="free" arrivalPos="0.0"><route edges="222899032#1 261671454#0 887747034 887747035#0 384593010#2 384593010#2.57 168725548#0 295083398#0 168725546#0 243850913#0 31985292#0" /></vehicle><route id="921" edges="222899032#1 261671454#0 887747034 887747035#0 384593010#2 384593010#2.57 168725548#0 295083398#0 168725546#0 243850913#0 31985292#0" /><vehicle id="919" type="car" depart="0.0" departPos="19.8280004034699" departLane="free" arrivalPos="74.32845097316566"><route edges="261671453 82682796 384593007 261671454#0 887747034 887747035#0 384593010#2 384593010#2.57 168725548#0 295083398#0 168725546#0 243850915#0 243850915#1 41806625#0 400829834#0 163711426#0 163711426#2 878082499#0 249697226#0 249697226#1 295083400#0" /></vehicle><route id="919" edges="261671453 82682796 384593007 261671454#0 887747034 887747035#0 384593010#2 384593010#2.57 168725548#0 295083398#0 168725546#0 243850915#0 243850915#1 41806625#0 400829834#0 163711426#0 163711426#2 878082499#0 249697226#0 249697226#1 295083400#0" /><vehicle id="918" type="motorcycle" depart="0.0" departPos="110.23839449918958" departLane="free" arrivalPos="32.02187418253478"><route edges="260124785#3 311408820#0 311408820#5 311408820#8 168737311#0 168737311#4 32295709 207971475#0 207971475#1 284241336#0 284241336#5 52493742 52493741#0 704293239#0 299506410#0 207979572#0 207979572#0.114" /></vehicle><route id="918" edges="260124785#3 311408820#0 311408820#5 311408820#8 168737311#0 168737311#4 32295709 207971475#0 207971475#1 284241336#0 284241336#5 52493742 52493741#0 704293239#0 299506410#0 207979572#0 207979572#0.114" /><vehicle id="917" type="motorcycle" depart="0.0" departPos="0.11582099412657261" departLane="free" arrivalPos="3.141895840775418"><route edges="259806440#0 249412140#0 260124785#0 260124785#3 311408820#0 311408820#5 311408820#8 168737311#0 168737311#4 32295709 207971475#0 207971475#1 284241336#0 284241336#5 52493742 52493741#0 704293239#0 299506410#0 207979572#0 207979572#0.114 23182767#0" /></vehicle><route id="917" edges="259806440#0 249412140#0 260124785#0 260124785#3 311408820#0 311408820#5 311408820#8 168737311#0 168737311#4 32295709 207971475#0 207971475#1 284241336#0 284241336#5 52493742 52493741#0 704293239#0 299506410#0 207979572#0 207979572#0.114 23182767#0" /><vehicle id="916" type="car" depart="0.0" departPos="6.90169330643486" departLane="free" arrivalPos="0.0"><route edges="390115233#0 778622871 758432181 259806440#0 249412140#0 260124785#0 260124785#3 311408820#0 311408820#5 311408820#8 168737311#0 168737311#4 32295709 207971475#0 207971475#1 284241336#0 284241336#5 52493742 52493741#0 704293239#0 299506410#0 207979572#0 207979572#0.114 789796816#0" /></vehicle><route id="916" edges="390115233#0 778622871 758432181 259806440#0 249412140#0 260124785#0 260124785#3 311408820#0 311408820#5 311408820#8 168737311#0 168737311#4 32295709 207971475#0 207971475#1 284241336#0 284241336#5 52493742 52493741#0 704293239#0 299506410#0 207979572#0 207979572#0.114 789796816#0" /><vehicle id="915" type="taxi" depart="0.0" departPos="25.494475855069265" departLane="free" arrivalPos="98.42538154757057"><route edges="207979571#0 299888950 299888949#0 1050850176#0 163711425#0 878082496 778622871 758432181 259806440#0 249412140#0 260124785#0 260124785#3 755022871#0" /></vehicle><route id="915" edges="207979571#0 299888950 299888949#0 1050850176#0 163711425#0 878082496 778622871 758432181 259806440#0 249412140#0 260124785#0 260124785#3 755022871#0" /><vehicle id="914" type="taxi" depart="0.0" departPos="39.1294132740986" departLane="free" arrivalPos="33.828226892449564"><route edges="775601984#2 207979571#0 299888950 299888949#0 1050850176#0 163711425#0 878082496 778622871 758432181 259806440#0 249412140#0 260124785#0 260124785#3 755022871#0 189099792#0" /></vehicle><route id="914" edges="775601984#2 207979571#0 299888950 299888949#0 1050850176#0 16371