<?xml version="1.0" encoding="UTF-8"?>

<!-- generated on 2023-11-23 16:05:39 by Eclipse SUMO netconvert Version 1.16.0
<configuration xmlns:xsi="http://www.w3.org/2001/XMLSchema-instance" xsi:noNamespaceSchemaLocation="http://sumo.dlr.de/xsd/netconvertConfiguration.xsd">

    <input>
        <sumo-net-file value="all.net.xml"/>
        <tllogic-files value="../traffic_light/17.tll.xml"/>
    </input>

    <output>
        <output-file value="17.net.xml"/>
    </output>

    <processing>
        <geometry.min-radius.fix.railways value="false"/>
        <geometry.max-grade.fix value="false"/>
        <offset.disable-normalization value="true"/>
        <lefthand value="0"/>
    </processing>

    <junctions>
        <no-turnarounds value="true"/>
        <junctions.corner-detail value="5"/>
        <junctions.limit-turn-speed value="5.50"/>
        <rectangular-lane-cut value="0"/>
    </junctions>

    <pedestrian>
        <walkingareas value="0"/>
    </pedestrian>

</configuration>
-->

<net version="1.16" junctionCornerDetail="5" limitTurnSpeed="5.50" xmlns:xsi="http://www.w3.org/2001/XMLSchema-instance" xsi:noNamespaceSchemaLocation="http://sumo.dlr.de/xsd/net_file.xsd">

    <location netOffset="-738450.81,-4206052.77" convBoundary="0.00,0.00,2848.99,3033.44" origBoundary="23.681814,37.969290,23.784461,38.022834" projParameter="+proj=utm +zone=34 +ellps=WGS84 +datum=WGS84 +units=m +no_defs"/>

    <type id="highway.bridleway" priority="1" numLanes="1" speed="2.78" allow="pedestrian" oneway="1" width="2.00"/>
    <type id="highway.bus_guideway" priority="1" numLanes="1" speed="27.78" allow="bus" oneway="1"/>
    <type id="highway.cycleway" priority="1" numLanes="1" speed="5.56" allow="bicycle" oneway="0" width="1.00"/>
    <type id="highway.footway" priority="1" numLanes="1" speed="2.78" allow="pedestrian" oneway="1" width="2.00"/>
    <type id="highway.ford" priority="1" numLanes="1" speed="2.78" allow="army" oneway="0"/>
    <type id="highway.living_street" priority="2" numLanes="1" speed="2.78" disallow="tram rail_urban rail rail_electric rail_fast ship" oneway="0"/>
    <type id="highway.motorway" priority="14" numLanes="2" speed="39.44" allow="private emergency authority army vip passenger hov taxi bus coach delivery truck trailer motorcycle evehicle custom1 custom2" oneway="1"/>
    <type id="highway.motorway_link" priority="9" numLanes="1" speed="22.22" allow="private emergency authority army vip passenger hov taxi bus coach delivery truck trailer motorcycle evehicle custom1 custom2" oneway="1"/>
    <type id="highway.path" priority="1" numLanes="1" speed="5.56" allow="pedestrian bicycle" oneway="0" width="2.00"/>
    <type id="highway.pedestrian" priority="1" numLanes="1" speed="2.78" allow="pedestrian" oneway="1" width="2.00"/>
    <type id="highway.primary" priority="12" numLanes="2" speed="27.78" disallow="tram rail_urban rail rail_electric rail_fast ship" oneway="0"/>
    <type id="highway.primary_link" priority="7" numLanes="1" speed="22.22" disallow="tram rail_urban rail rail_electric rail_fast ship" oneway="0"/>
    <type id="highway.raceway" priority="15" numLanes="2" speed="83.33" allow="vip" oneway="0"/>
    <type id="highway.residential" priority="3" numLanes="1" speed="13.89" disallow="tram rail_urban rail rail_electric rail_fast ship" oneway="0"/>
    <type id="highway.secondary" priority="11" numLanes="1" speed="27.78" disallow="tram rail_urban rail rail_electric rail_fast ship" oneway="0"/>
    <type id="highway.secondary_link" priority="6" numLanes="1" speed="22.22" disallow="tram rail_urban rail rail_electric rail_fast ship" oneway="0"/>
    <type id="highway.service" priority="1" numLanes="1" speed="5.56" allow="pedestrian delivery bicycle" oneway="0"/>
    <type id="highway.stairs" priority="1" numLanes="1" speed="1.39" allow="pedestrian" oneway="1" width="2.00"/>
    <type id="highway.step" priority="1" numLanes="1" speed="1.39" allow="pedestrian" oneway="1" width="2.00"/>
    <type id="highway.steps" priority="1" numLanes="1" speed="1.39" allow="pedestrian" oneway="1" width="2.00"/>
    <type id="highway.tertiary" priority="10" numLanes="1" speed="22.22" disallow="tram rail_urban rail rail_electric rail_fast ship" oneway="0"/>
    <type id="highway.tertiary_link" priority="5" numLanes="1" speed="22.22" disallow="tram rail_urban rail rail_electric rail_fast ship" oneway="0"/>
    <type id="highway.track" priority="1" numLanes="1" speed="5.56" allow="pedestrian motorcycle moped bicycle" oneway="0"/>
    <type id="highway.trunk" priority="13" numLanes="2" speed="27.78" disallow="pedestrian bicycle tram rail_urban rail rail_electric rail_fast ship" oneway="0"/>
    <type id="highway.trunk_link" priority="8" numLanes="1" speed="22.22" disallow="pedestrian bicycle tram rail_urban rail rail_electric rail_fast ship" oneway="0"/>
    <type id="highway.unclassified" priority="4" numLanes="1" speed="13.89" disallow="tram rail_urban rail rail_electric rail_fast ship" oneway="0"/>
    <type id="highway.unsurfaced" priority="1" numLanes="1" speed="8.33" disallow="tram rail_urban rail rail_electric rail_fast ship" oneway="0"/>
    <type id="railway.highspeed" priority="21" numLanes="1" speed="69.44" allow="rail_fast" oneway="1"/>
    <type id="railway.light_rail" priority="19" numLanes="1" speed="27.78" allow="rail_urban" oneway="1"/>
    <type id="railway.preserved" priority="16" numLanes="1" speed="27.78" allow="rail" oneway="1"/>
    <type id="railway.rail" priority="20" numLanes="1" speed="44.44" allow="rail" oneway="1"/>
    <type id="railway.subway" priority="18" numLanes="1" speed="27.78" allow="rail_urban" oneway="1"/>
    <type id="railway.tram" priority="17" numLanes="1" speed="13.89" allow="tram" oneway="1"/>

    <edge id=":1003125434_0" function="internal">
        <lane id=":1003125434_0_0" index="0" disallow="tram rail_urban rail rail_electric rail_fast ship" speed="6.95" length="8.05" shape="1220.32,1007.37 1221.61,1009.32 1223.11,1010.60 1224.82,1011.23 1226.74,1011.20"/>
    </edge>
    <edge id=":1003125434_1" function="internal">
        <lane id=":1003125434_1_0" index="0" disallow="tram rail_urban rail rail_electric rail_fast ship" speed="22.22" length="9.24" shape="1217.64,1012.82 1226.74,1011.20"/>
    </edge>
    <edge id=":1003481221_0" function="internal">
        <lane id=":1003481221_0_0" index="0" allow="bus bicycle" speed="13.89" length="5.81" shape="936.75,1386.34 935.28,1385.48 934.15,1385.10 933.00,1384.76 931.46,1384.00"/>
    </edge>
    <edge id=":1003481221_1" function="internal">
        <lane id=":1003481221_1_0" index="0" disallow="tram rail_urban rail rail_electric rail_fast ship" speed="3.65" length="1.44" shape="936.75,1386.34 936.23,1385.00"/>
    </edge>
    <edge id=":1003481221_9" function="internal">
        <lane id=":1003481221_9_0" index="0" disallow="tram rail_urban rail rail_electric rail_fast ship" speed="3.65" length="3.23" shape="936.23,1385.00 936.36,1384.12 937.15,1383.69 938.59,1383.73"/>
    </edge>
    <edge id=":1003481221_2" function="internal">
        <lane id=":1003481221_2_0" index="0" disallow="tram rail_urban rail rail_electric rail_fast ship" speed="8.23" length="6.05" shape="941.51,1370.55 941.93,1372.38 942.51,1373.87 943.23,1375.04 944.11,1375.87"/>
        <lane id=":1003481221_2_1" index="1" disallow="tram rail_urban rail rail_electric rail_fast ship" speed="9.39" length="8.02" shape="941.51,1370.55 941.59,1372.13 941.65,1374.67 941.83,1377.14 942.27,1378.49"/>
    </edge>
    <edge id=":1003481221_4" function="internal">
        <lane id=":1003481221_4_0" index="0" disallow="tram rail_urban rail rail_electric rail_fast ship" speed="13.89" length="6.43" shape="937.98,1372.99 939.77,1373.89 941.09,1374.35 942.39,1374.84 944.11,1375.87"/>
        <lane id=":1003481221_4_1" index="1" disallow="tram rail_urban rail rail_electric rail_fast ship" speed="13.89" length="6.43" shape="936.35,1375.74 938.08,1376.61 939.36,1377.04 940.61,1377.50 942.27,1378.49"/>
        <lane id=":1003481221_4_2" index="2" disallow="tram rail_urban rail rail_electric rail_fast ship" speed="13.89" length="6.43" shape="934.72,1378.50 936.39,1379.33 937.62,1379.73 938.83,1380.16 940.43,1381.11"/>
        <lane id=":1003481221_4_3" index="3" disallow="tram rail_urban rail rail_electric rail_fast ship" speed="13.89" length="6.43" shape="933.09,1381.25 934.69,1382.04 935.88,1382.42 937.05,1382.82 938.59,1383.73"/>
    </edge>
    <edge id=":1003481221_8" function="internal">
        <lane id=":1003481221_8_0" index="0" allow="bus bicycle" speed="3.65" length="1.44" shape="933.09,1381.25 933.71,1382.55"/>
    </edge>
    <edge id=":1003481221_10" function="internal">
        <lane id=":1003481221_10_0" index="0" allow="bus bicycle" speed="3.65" length="3.23" shape="933.71,1382.55 933.65,1383.44 932.90,1383.93 931.46,1384.00"/>
    </edge>
    <edge id=":1005304902_0" function="internal">
        <lane id=":1005304902_0_0" index="0" allow="pedestrian bus" speed="2.78" length="3.08" width="2.00" shape="553.35,706.95 553.28,706.05 553.37,705.42 553.47,704.79 553.39,703.89"/>
    </edge>
    <edge id=":1005304902_1" function="internal">
        <lane id=":1005304902_1_0" index="0" disallow="tram rail_urban rail rail_electric rail_fast ship" speed="2.78" length="1.33" shape="553.35,706.95 553.88,705.72"/>
    </edge>
    <edge id=":1005304902_3" function="internal">
        <lane id=":1005304902_3_0" index="0" disallow="tram rail_urban rail rail_electric rail_fast ship" speed="2.78" length="3.34" shape="553.88,705.72 553.92,705.62 554.63,705.08 555.49,705.33 556.50,706.36"/>
    </edge>
    <edge id=":1005304902_2" function="internal">
        <lane id=":1005304902_2_0" index="0" allow="pedestrian bus" speed="2.78" length="3.08" shape="555.36,703.52 555.62,704.39 555.93,704.94 556.24,705.50 556.50,706.36"/>
    </edge>
    <edge id=":10092313561_0" function="internal">
        <lane id=":10092313561_0_0" index="0" disallow="tram rail_urban rail rail_electric rail_fast ship" speed="5.52" length="9.50" shape="2333.60,809.44 2332.85,806.56 2333.32,804.84 2335.01,804.28 2337.92,804.87"/>
    </edge>
    <edge id=":10092313561_1" function="internal">
        <lane id=":10092313561_1_0" index="0" disallow="tram rail_urban rail rail_electric rail_fast ship" speed="22.22" length="12.16" shape="2327.38,798.01 2338.93,801.83"/>
        <lane id=":10092313561_1_1" index="1" disallow="tram rail_urban rail rail_electric rail_fast ship" speed="22.22" length="12.16" shape="2326.38,801.05 2337.92,804.87"/>
    </edge>
    <edge id=":10134034285_0" function="internal">
        <lane id=":10134034285_0_0" index="0" disallow="tram rail_urban rail rail_electric rail_fast ship" speed="6.55" length="9.08" shape="1763.60,1359.89 1761.33,1358.82 1759.26,1358.71 1757.41,1359.57 1755.76,1361.39"/>
    </edge>
    <edge id=":10134034285_1" function="internal">
        <lane id=":10134034285_1_0" index="0" disallow="tram rail_urban rail rail_electric rail_fast ship" speed="22.22" length="14.45" shape="1763.60,1359.89 1751.62,1351.70"/>
        <lane id=":10134034285_1_1" index="1" disallow="tram rail_urban rail rail_electric rail_fast ship" speed="22.22" length="14.45" shape="1765.35,1357.21 1753.48,1349.10"/>
    </edge>
    <edge id=":10134034285_3" function="internal">
        <lane id=":10134034285_3_0" index="0" disallow="tram rail_urban rail rail_electric rail_fast ship" speed="27.78" length="14.39" shape="1763.88,1349.56 1755.76,1361.39"/>
        <lane id=":10134034285_3_1" index="1" disallow="tram rail_urban rail rail_electric rail_fast ship" speed="27.78" length="14.39" shape="1761.27,1347.71 1753.10,1359.61"/>
    </edge>
    <edge id=":10134034285_5" function="internal">
        <lane id=":10134034285_5_0" index="0" disallow="tram rail_urban rail rail_electric rail_fast ship" speed="6.49" length="9.03" shape="1761.27,1347.71 1759.56,1349.54 1757.69,1350.37 1755.67,1350.23 1753.48,1349.10"/>
    </edge>
    <edge id=":10134034290_0" function="internal">
        <lane id=":10134034290_0_0" index="0" disallow="tram rail_urban rail rail_electric rail_fast ship" speed="6.65" length="9.00" shape="1891.74,1163.99 1890.68,1166.22 1890.53,1168.29 1891.31,1170.18 1893.00,1171.90"/>
    </edge>
    <edge id=":10134034290_1" function="internal">
        <lane id=":10134034290_1_0" index="0" disallow="tram rail_urban rail rail_electric rail_fast ship" speed="27.78" length="11.02" shape="1891.74,1163.99 1885.56,1173.12"/>
        <lane id=":10134034290_1_1" index="1" disallow="tram rail_urban rail rail_electric rail_fast ship" speed="27.78" length="11.02" shape="1889.10,1162.20 1882.91,1171.32"/>
    </edge>
    <edge id=":10134034290_3" function="internal">
        <lane id=":10134034290_3_0" index="0" disallow="tram rail_urban rail rail_electric rail_fast ship" speed="13.89" length="14.09" shape="1881.71,1163.47 1893.00,1171.90"/>
    </edge>
    <edge id=":10134034290_4" function="internal">
        <lane id=":10134034290_4_0" index="0" disallow="tram rail_urban rail rail_electric rail_fast ship" speed="6.60" length="8.96" shape="1881.71,1163.47 1883.41,1165.18 1884.17,1167.06 1884.01,1169.11 1882.91,1171.32"/>
    </edge>
    <edge id=":10134034294_0" function="internal">
        <lane id=":10134034294_0_0" index="0" disallow="tram rail_urban rail rail_electric rail_fast ship" speed="6.50" length="9.05" shape="1945.29,1093.06 1943.05,1091.98 1941.01,1091.88 1939.16,1092.75 1937.52,1094.61"/>
    </edge>
    <edge id=":10134034294_1" function="internal">
        <lane id=":10134034294_1_0" index="0" disallow="tram rail_urban rail rail_electric rail_fast ship" speed="13.89" length="14.47" shape="1945.29,1093.06 1933.45,1084.75"/>
    </edge>
    <edge id=":10134034294_2" function="internal">
        <lane id=":10134034294_2_0" index="0" disallow="tram rail_urban rail rail_electric rail_fast ship" speed="27.78" length="11.30" shape="1943.86,1085.31 1937.52,1094.61"/>
        <lane id=":10134034294_2_1" index="1" disallow="tram rail_urban rail rail_electric rail_fast ship" speed="27.78" length="11.30" shape="1941.24,1083.47 1934.85,1092.84"/>
    </edge>
    <edge id=":10134034294_4" function="internal">
        <lane id=":10134034294_4_0" index="0" disallow="tram rail_urban rail rail_electric rail_fast ship" speed="6.47" length="9.05" shape="1941.24,1083.47 1939.54,1085.28 1937.67,1086.10 1935.64,1085.92 1933.45,1084.75"/>
    </edge>
    <edge id=":10174555843_0" function="internal">
        <lane id=":10174555843_0_0" index="0" disallow="tram rail_urban rail rail_electric rail_fast ship" speed="7.97" length="14.37" shape="1782.41,1088.65 1786.71,1091.55 1790.26,1092.97 1793.06,1092.91 1795.10,1091.37"/>
    </edge>
    <edge id=":10174555843_1" function="internal">
        <lane id=":10174555843_1_0" index="0" disallow="tram rail_urban rail rail_electric rail_fast ship" speed="13.89" length="27.05" shape="1782.41,1088.65 1786.75,1092.28 1792.79,1097.42 1798.96,1102.32 1803.70,1105.26"/>
    </edge>
    <edge id=":10174555843_2" function="internal">
        <lane id=":10174555843_2_0" index="0" disallow="tram rail_urban rail rail_electric rail_fast ship" speed="3.65" length="1.44" shape="1782.41,1088.65 1782.87,1090.02"/>
    </edge>
    <edge id=":10174555843_12" function="internal">
        <lane id=":10174555843_12_0" index="0" disallow="tram rail_urban rail rail_electric rail_fast ship" speed="3.65" length="3.24" shape="1782.87,1090.02 1782.69,1090.90 1781.88,1091.28 1780.44,1091.18"/>
    </edge>
    <edge id=":10174555843_3" function="internal">
        <lane id=":10174555843_3_0" index="0" disallow="tram rail_urban rail rail_electric rail_fast ship" speed="5.45" length="9.76" shape="1778.90,1096.86 1781.95,1096.22 1783.22,1095.06 1782.72,1093.38 1780.44,1091.18"/>
    </edge>
    <edge id=":10174555843_4" function="internal">
        <lane id=":10174555843_4_0" index="0" disallow="tram rail_urban rail rail_electric rail_fast ship" speed="13.03" length="17.47" shape="1778.90,1096.86 1784.83,1096.05 1789.51,1094.86 1792.93,1093.30 1795.10,1091.37"/>
    </edge>
    <edge id=":10174555843_5" function="internal">
        <lane id=":10174555843_5_0" index="0" disallow="tram rail_urban rail rail_electric rail_fast ship" speed="11.68" length="25.26" shape="1779.55,1100.65 1782.11,1099.51 1786.99,1099.89 1794.19,1101.81 1803.70,1105.26"/>
    </edge>
    <edge id=":10174555843_6" function="internal">
        <lane id=":10174555843_6_0" index="0" disallow="tram rail_urban rail rail_electric rail_fast ship" speed="8.77" length="16.53" shape="1785.30,1105.17 1786.72,1101.81 1786.39,1098.36 1784.29,1094.81 1780.44,1091.18"/>
    </edge>
    <edge id=":10174555843_7" function="internal">
        <lane id=":10174555843_7_0" index="0" disallow="tram rail_urban rail rail_electric rail_fast ship" speed="19.45" length="16.80" shape="1785.30,1105.17 1795.10,1091.37"/>
        <lane id=":10174555843_7_1" index="1" disallow="tram rail_urban rail rail_electric rail_fast ship" speed="19.45" length="16.80" shape="1787.93,1107.00 1797.68,1093.26"/>
        <lane id=":10174555843_7_2" index="2" disallow="tram rail_urban rail rail_electric rail_fast ship" speed="19.45" length="16.80" shape="1790.56,1108.82 1800.27,1095.16"/>
        <lane id=":10174555843_7_3" index="3" disallow="tram rail_urban rail rail_electric rail_fast ship" speed="19.45" length="16.80" shape="1793.19,1110.64 1802.85,1097.05"/>
    </edge>
    <edge id=":10174555843_11" function="internal">
        <lane id=":10174555843_11_0" index="0" disallow="tram rail_urban rail rail_electric rail_fast ship" speed="8.33" length="12.77" shape="1793.19,1110.64 1795.79,1107.50 1798.41,1105.56 1801.05,1104.81 1803.70,1105.26"/>
    </edge>
    <edge id=":1062776652_0" function="internal">
        <lane id=":1062776652_0_0" index="0" disallow="tram rail_urban rail rail_electric rail_fast ship" speed="22.22" length="8.62" shape="2198.61,2258.99 2200.06,2267.49"/>
    </edge>
    <edge id=":1062776652_1" function="internal">
        <lane id=":1062776652_1_0" index="0" disallow="tram rail_urban rail rail_electric rail_fast ship" speed="5.32" length="7.29" shape="2194.03,2267.29 2196.44,2266.07 2198.25,2265.70 2199.46,2266.17 2200.06,2267.49"/>
    </edge>
    <edge id=":1062776725_0" function="internal">
        <lane id=":1062776725_0_0" index="0" disallow="tram rail_urban rail rail_electric rail_fast ship" speed="22.22" length="7.88" shape="2152.34,2295.52 2150.95,2287.76"/>
    </edge>
    <edge id=":1062776725_1" function="internal">
        <lane id=":1062776725_1_0" index="0" disallow="tram rail_urban rail rail_electric rail_fast ship" speed="6.73" length="7.01" shape="2152.34,2295.52 2152.39,2294.13 2153.04,2292.77 2154.30,2291.43 2156.15,2290.12"/>
    </edge>
    <edge id=":1062776725_2" function="internal">
        <lane id=":1062776725_2_0" index="0" disallow="tram rail_urban rail rail_electric rail_fast ship" speed="7.56" length="8.94" shape="2147.53,2295.40 2149.36,2293.92 2150.54,2292.15 2151.07,2290.10 2150.95,2287.76"/>
    </edge>
    <edge id=":1062776725_3" function="internal">
        <lane id=":1062776725_3_0" index="0" disallow="tram rail_urban rail rail_electric rail_fast ship" speed="13.89" length="10.11" shape="2147.53,2295.40 2156.15,2290.12"/>
    </edge>
    <edge id=":1062776859_0" function="internal">
        <lane id=":1062776859_0_0" index="0" allow="bus bicycle" speed="6.49" length="9.03" shape="2072.64,2262.60 2070.27,2263.35 2068.73,2264.67 2067.99,2266.57 2068.07,2269.05"/>
    </edge>
    <edge id=":1062776859_1" function="internal">
        <lane id=":1062776859_1_0" index="0" allow="bus bicycle" speed="13.89" length="11.20" shape="2072.64,2262.60 2061.59,2264.44"/>
        <lane id=":1062776859_1_1" index="1" disallow="tram rail_urban rail rail_electric rail_fast ship" speed="13.89" length="11.20" shape="2072.11,2259.44 2061.06,2261.28"/>
        <lane id=":1062776859_1_2" index="2" disallow="tram rail_urban rail rail_electric rail_fast ship" speed="13.89" length="11.20" shape="2071.58,2256.28 2060.53,2258.13"/>
    </edge>
    <edge id=":10665112035_0" function="internal">
        <lane id=":10665112035_0_0" index="0" disallow="tram rail_urban rail rail_electric rail_fast ship" speed="18.05" length="0.10" shape="1006.29,2124.79 1006.29,2124.79"/>
    </edge>
    <edge id=":10665112035_1" function="internal">
        <lane id=":10665112035_1_0" index="0" disallow="tram rail_urban rail rail_electric rail_fast ship" speed="27.78" length="0.10" shape="1009.49,2124.69 1009.49,2124.69"/>
    </edge>
    <edge id=":1165449763_0" function="internal">
        <lane id=":1165449763_0_0" index="0" disallow="tram rail_urban rail rail_electric rail_fast ship" speed="3.65" length="4.67" shape="2386.49,1642.67 2387.84,1642.17 2388.72,1642.32 2389.13,1643.11 2389.07,1644.55"/>
    </edge>
    <edge id=":1172881625_0" function="internal">
        <lane id=":1172881625_0_0" index="0" disallow="tram rail_urban rail rail_electric rail_fast ship" speed="3.65" length="4.67" shape="1054.72,2097.67 1055.31,2096.35 1056.03,2095.82 1056.89,2096.08 1057.88,2097.13"/>
    </edge>
    <edge id=":1303525204_0" function="internal">
        <lane id=":1303525204_0_0" index="0" disallow="tram rail_urban rail rail_electric rail_fast ship" speed="13.89" length="7.62" shape="1797.33,2138.64 1793.02,2144.92"/>
    </edge>
    <edge id=":1303525204_1" function="internal">
        <lane id=":1303525204_1_0" index="0" disallow="tram rail_urban rail rail_electric rail_fast ship" speed="9.59" length="7.52" shape="1793.31,2137.72 1793.79,2139.92 1794.12,2141.52 1793.97,2143.02 1793.02,2144.92"/>
    </edge>
    <edge id=":1303525230_0" function="internal">
        <lane id=":1303525230_0_0" index="0" disallow="tram rail_urban rail rail_electric rail_fast ship" speed="13.89" length="9.56" shape="1915.68,2230.65 1906.34,2228.59"/>
    </edge>
    <edge id=":1303525230_1" function="internal">
        <lane id=":1303525230_1_0" index="0" disallow="tram rail_urban rail rail_electric rail_fast ship" speed="5.89" length="8.44" shape="1915.68,2230.65 1912.89,2229.77 1911.16,2228.59 1910.48,2227.12 1910.85,2225.36"/>
    </edge>
    <edge id=":1303525230_2" function="internal">
        <lane id=":1303525230_2_0" index="0" disallow="tram rail_urban rail rail_electric rail_fast ship" speed="6.80" length="1.27" shape="1913.75,2226.72 1912.97,2227.72"/>
    </edge>
    <edge id=":1303525230_3" function="internal">
        <lane id=":1303525230_3_0" index="0" disallow="tram rail_urban rail rail_electric rail_fast ship" speed="3.65" length="1.13" shape="1913.75,2226.72 1912.78,2227.31"/>
    </edge>
    <edge id=":1303525230_4" function="internal">
        <lane id=":1303525230_4_0" index="0" disallow="tram rail_urban rail rail_electric rail_fast ship" speed="6.80" length="6.98" shape="1912.97,2227.72 1912.72,2228.03 1911.15,2228.77 1909.02,2228.96 1906.34,2228.59"/>
    </edge>
    <edge id=":1303525230_5" function="internal">
        <lane id=":1303525230_5_0" index="0" disallow="tram rail_urban rail rail_electric rail_fast ship" speed="3.65" length="3.54" shape="1912.78,2227.31 1912.51,2227.47 1911.62,2227.49 1911.07,2226.78 1910.85,2225.36"/>
    </edge>
    <edge id=":1303525235_0" function="internal">
        <lane id=":1303525235_0_0" index="0" disallow="tram rail_urban rail rail_electric rail_fast ship" speed="7.01" length="9.56" shape="1872.57,2110.22 1870.13,2110.03 1868.09,2110.70 1866.43,2112.23 1865.15,2114.62"/>
    </edge>
    <edge id=":1303525235_1" function="internal">
        <lane id=":1303525235_1_0" index="0" disallow="tram rail_urban rail rail_electric rail_fast ship" speed="13.89" length="14.32" shape="1872.57,2110.22 1858.75,2106.46"/>
    </edge>
    <edge id=":1303525235_2" function="internal">
        <lane id=":1303525235_2_0" index="0" disallow="tram rail_urban rail rail_electric rail_fast ship" speed="6.37" length="9.04" shape="1862.17,2113.47 1862.72,2111.03 1862.33,2109.05 1861.01,2107.53 1858.75,2106.46"/>
    </edge>
    <edge id=":1303525235_3" function="internal">
        <lane id=":1303525235_3_0" index="0" disallow="tram rail_urban rail rail_electric rail_fast ship" speed="3.65" length="1.44" shape="1862.17,2113.47 1863.34,2112.64"/>
    </edge>
    <edge id=":1303525235_4" function="internal">
        <lane id=":1303525235_4_0" index="0" disallow="tram rail_urban rail rail_electric rail_fast ship" speed="3.65" length="3.23" shape="1863.34,2112.64 1864.23,2112.55 1864.84,2113.21 1865.15,2114.62"/>
    </edge>
    <edge id=":1303525242_0" function="internal">
        <lane id=":1303525242_0_0" index="0" disallow="tram rail_urban rail rail_electric rail_fast ship" speed="12.08" length="15.13" shape="1916.35,2042.93 1911.58,2044.78 1907.91,2046.73 1905.35,2048.77 1903.89,2050.91"/>
    </edge>
    <edge id=":1303525242_1" function="internal">
        <lane id=":1303525242_1_0" index="0" disallow="tram rail_urban rail rail_electric rail_fast ship" speed="7.44" length="19.60" shape="1916.35,2042.93 1910.20,2044.29 1906.86,2043.24 1906.33,2039.77 1908.61,2033.90"/>
    </edge>
    <edge id=":1303525242_2" function="internal">
        <lane id=":1303525242_2_0" index="0" disallow="tram rail_urban rail rail_electric rail_fast ship" speed="3.65" length="4.67" shape="1916.35,2042.93 1914.96,2042.55 1914.32,2041.92 1914.44,2041.04 1915.32,2039.90"/>
    </edge>
    <edge id=":1303525242_3" function="internal">
        <lane id=":1303525242_3_0" index="0" disallow="tram rail_urban rail rail_electric rail_fast ship" speed="5.47" length="9.81" shape="1911.44,2035.38 1910.30,2038.32 1910.57,2040.05 1912.24,2040.58 1915.32,2039.90"/>
    </edge>
    <edge id=":1303525242_4" function="internal">
        <lane id=":1303525242_4_0" index="0" disallow="tram rail_urban rail rail_electric rail_fast ship" speed="13.89" length="17.27" shape="1911.44,2035.38 1903.89,2050.91"/>
    </edge>
    <edge id=":1303525242_5" function="internal">
        <lane id=":1303525242_5_0" index="0" disallow="tram rail_urban rail rail_electric rail_fast ship" speed="3.65" length="1.44" shape="1911.44,2035.38 1910.18,2036.07"/>
    </edge>
    <edge id=":1303525242_9" function="internal">
        <lane id=":1303525242_9_0" index="0" disallow="tram rail_urban rail rail_electric rail_fast ship" speed="3.65" length="3.23" shape="1910.18,2036.07 1909.29,2036.06 1908.76,2035.34 1908.61,2033.90"/>
    </edge>
    <edge id=":1303525242_6" function="internal">
        <lane id=":1303525242_6_0" index="0" disallow="tram rail_urban rail rail_electric rail_fast ship" speed="13.89" length="17.54" shape="1900.94,2049.68 1908.61,2033.90"/>
    </edge>
    <edge id=":1303525242_7" function="internal">
        <lane id=":1303525242_7_0" index="0" disallow="tram rail_urban rail rail_electric rail_fast ship" speed="13.08" length="3.93" shape="1900.94,2049.68 1902.72,2046.93 1903.22,2046.51"/>
    </edge>
    <edge id=":1303525242_8" function="internal">
        <lane id=":1303525242_8_0" index="0" disallow="tram rail_urban rail rail_electric rail_fast ship" speed="3.65" length="1.44" shape="1900.94,2049.68 1902.13,2048.88"/>
    </edge>
    <edge id=":1303525242_10" function="internal">
        <lane id=":1303525242_10_0" index="0" disallow="tram rail_urban rail rail_electric rail_fast ship" speed="13.08" length="13.90" shape="1903.22,2046.51 1905.71,2044.38 1909.91,2042.04 1915.32,2039.90"/>
    </edge>
    <edge id=":1303525242_11" function="internal">
        <lane id=":1303525242_11_0" index="0" disallow="tram rail_urban rail rail_electric rail_fast ship" speed="3.65" length="3.23" shape="1902.13,2048.88 1903.03,2048.82 1903.61,2049.49 1903.89,2050.91"/>
    </edge>
    <edge id=":1303525247_0" function="internal">
        <lane id=":1303525247_0_0" index="0" disallow="tram rail_urban rail rail_electric rail_fast ship" speed="7.44" length="10.19" shape="1964.16,2131.62 1961.73,2131.47 1959.59,2132.23 1957.74,2133.89 1956.18,2136.45"/>
    </edge>
    <edge id=":1303525247_1" function="internal">
        <lane id=":1303525247_1_0" index="0" disallow="tram rail_urban rail rail_electric rail_fast ship" speed="13.89" length="14.54" shape="1964.16,2131.62 1950.00,2128.33"/>
    </edge>
    <edge id=":1303525247_2" function="internal">
        <lane id=":1303525247_2_0" index="0" disallow="tram rail_urban rail rail_electric rail_fast ship" speed="6.10" length="9.06" shape="1953.28,2135.09 1954.03,2132.64 1953.73,2130.69 1952.38,2129.26 1950.00,2128.33"/>
    </edge>
    <edge id=":1303525247_3" function="internal">
        <lane id=":1303525247_3_0" index="0" disallow="tram rail_urban rail rail_electric rail_fast ship" speed="3.65" length="1.44" shape="1953.28,2135.09 1954.52,2134.34"/>
    </edge>
    <edge id=":1303525247_4" function="internal">
        <lane id=":1303525247_4_0" index="0" disallow="tram rail_urban rail rail_electric rail_fast ship" speed="3.65" length="3.23" shape="1954.52,2134.34 1955.41,2134.32 1955.96,2135.02 1956.18,2136.45"/>
    </edge>
    <edge id=":1303525313_0" function="internal">
        <lane id=":1303525313_0_0" index="0" disallow="tram rail_urban rail rail_electric rail_fast ship" speed="6.10" length="9.06" shape="1936.93,2177.54 1936.19,2179.99 1936.49,2181.94 1937.83,2183.37 1940.22,2184.30"/>
    </edge>
    <edge id=":1303525313_1" function="internal">
        <lane id=":1303525313_1_0" index="0" disallow="tram rail_urban rail rail_electric rail_fast ship" speed="13.89" length="12.67" shape="1936.93,2177.54 1931.54,2189.01"/>
    </edge>
    <edge id=":1303525313_2" function="internal">
        <lane id=":1303525313_2_0" index="0" disallow="tram rail_urban rail rail_electric rail_fast ship" speed="3.65" length="1.44" shape="1936.93,2177.54 1935.70,2178.29"/>
    </edge>
    <edge id=":1303525313_9" function="internal">